REMARK VINA RESULT:      -5.2     13.484     16.087
REMARK  Name = 5280443
REMARK  4 active torsions:
REMARK  status: ('A' for Active; 'I' for Inactive)
REMARK    1  A    between atoms: O_2  and  C_12
REMARK    2  A    between atoms: O_4  and  C_14
REMARK    3  A    between atoms: O_5  and  C_20
REMARK    4  A    between atoms: C_8  and  C_9
REMARK                            x       y       z     vdW  Elec       q    Type
REMARK                         _______ _______ _______ _____ _____    ______ ____
ROOT
ATOM      1  O   UNL     1      98.185   0.221  27.390  0.00  0.00    +0.000 OA
ATOM      2  O   UNL     1     101.790   1.703  28.575  0.00  0.00    +0.000 OA
ATOM      3  C   UNL     1      99.766   2.065  27.412  0.00  0.00    +0.000 A 
ATOM      4  C   UNL     1      98.549   1.498  27.042  0.00  0.00    +0.000 A 
ATOM      5  C   UNL     1      99.074  -0.538  28.137  0.00  0.00    +0.000 A 
ATOM      6  C   UNL     1     100.707   1.267  28.213  0.00  0.00    +0.000 A 
ATOM      7  C   UNL     1     100.271  -0.101  28.560  0.00  0.00    +0.000 A 
ATOM      8  C   UNL     1     100.082   3.371  27.030  0.00  0.00    +0.000 A 
ATOM      9  C   UNL     1      97.637   2.234  26.285  0.00  0.00    +0.000 A 
ATOM     10  C   UNL     1      97.949   3.538  25.900  0.00  0.00    +0.000 A 
ATOM     11  C   UNL     1      99.170   4.105  26.271  0.00  0.00    +0.000 A 
ENDROOT
BRANCH   5  12
ATOM     12  C   UNL     1      98.582  -1.891  28.461  0.00  0.00    +0.000 A 
ATOM     13  C   UNL     1      97.868  -2.114  29.641  0.00  0.00    +0.000 A 
ATOM     14  C   UNL     1      98.826  -2.954  27.589  0.00  0.00    +0.000 A 
ATOM     15  C   UNL     1      97.402  -3.393  29.947  0.00  0.00    +0.000 A 
ATOM     16  C   UNL     1      98.360  -4.233  27.895  0.00  0.00    +0.000 A 
ATOM     17  C   UNL     1      97.648  -4.453  29.074  0.00  0.00    +0.000 A 
BRANCH  17  18
ATOM     18  O   UNL     1      97.193  -5.700  29.372  0.00  0.00    +0.000 OA
ATOM     19  H   UNL     1      96.393  -5.620  29.919  0.00  0.00    +0.000 HD
ENDBRANCH  17  18
ENDBRANCH   5  12
BRANCH   8  20
ATOM     20  O   UNL     1     101.257   3.971  27.367  0.00  0.00    +0.000 OA
ATOM     21  H   UNL     1     101.484   3.779  28.290  0.00  0.00    +0.000 HD
ENDBRANCH   8  20
BRANCH  10  22
ATOM     22  O   UNL     1      97.062   4.259  25.161  0.00  0.00    +0.000 OA
ATOM     23  H   UNL     1      97.016   5.164  25.516  0.00  0.00    +0.000 HD
ENDBRANCH  10  22
TORSDOF 4
