REMARK VINA RESULT:      -5.5      1.236      2.825
REMARK  Name = 5280443
REMARK  4 active torsions:
REMARK  status: ('A' for Active; 'I' for Inactive)
REMARK    1  A    between atoms: O_2  and  C_12
REMARK    2  A    between atoms: O_4  and  C_14
REMARK    3  A    between atoms: O_5  and  C_20
REMARK    4  A    between atoms: C_8  and  C_9
REMARK                            x       y       z     vdW  Elec       q    Type
REMARK                         _______ _______ _______ _____ _____    ______ ____
ROOT
ATOM      1  O   UNL     1      83.695   2.725  27.804  0.00  0.00    +0.000 OA
ATOM      2  O   UNL     1      85.691  -0.649  26.697  0.00  0.00    +0.000 OA
ATOM      3  C   UNL     1      84.461   0.489  28.364  0.00  0.00    +0.000 A 
ATOM      4  C   UNL     1      83.793   1.671  28.677  0.00  0.00    +0.000 A 
ATOM      5  C   UNL     1      84.295   2.610  26.560  0.00  0.00    +0.000 A 
ATOM      6  C   UNL     1      85.091   0.359  27.040  0.00  0.00    +0.000 A 
ATOM      7  C   UNL     1      84.960   1.522  26.139  0.00  0.00    +0.000 A 
ATOM      8  C   UNL     1      84.528  -0.552  29.292  0.00  0.00    +0.000 A 
ATOM      9  C   UNL     1      83.186   1.819  29.924  0.00  0.00    +0.000 A 
ATOM     10  C   UNL     1      83.250   0.781  30.855  0.00  0.00    +0.000 A 
ATOM     11  C   UNL     1      83.921  -0.402  30.539  0.00  0.00    +0.000 A 
ENDROOT
BRANCH   5  12
ATOM     12  C   UNL     1      84.124   3.797  25.700  0.00  0.00    +0.000 A 
ATOM     13  C   UNL     1      84.239   5.080  26.243  0.00  0.00    +0.000 A 
ATOM     14  C   UNL     1      83.849   3.645  24.339  0.00  0.00    +0.000 A 
ATOM     15  C   UNL     1      84.078   6.202  25.430  0.00  0.00    +0.000 A 
ATOM     16  C   UNL     1      83.688   4.767  23.527  0.00  0.00    +0.000 A 
ATOM     17  C   UNL     1      83.802   6.046  24.072  0.00  0.00    +0.000 A 
BRANCH  17  18
ATOM     18  O   UNL     1      83.646   7.140  23.279  0.00  0.00    +0.000 OA
ATOM     19  H   UNL     1      83.331   7.882  23.825  0.00  0.00    +0.000 HD
ENDBRANCH  17  18
ENDBRANCH   5  12
BRANCH   8  20
ATOM     20  O   UNL     1      85.169  -1.726  29.033  0.00  0.00    +0.000 OA
ATOM     21  H   UNL     1      84.555  -2.473  29.112  0.00  0.00    +0.000 HD
ENDBRANCH   8  20
BRANCH  10  22
ATOM     22  O   UNL     1      82.659   0.922  32.073  0.00  0.00    +0.000 OA
ATOM     23  H   UNL     1      83.012   1.719  32.505  0.00  0.00    +0.000 HD
ENDBRANCH  10  22
TORSDOF 4
