REMARK VINA RESULT:      -5.5     13.861     16.206
REMARK  Name = 5280443
REMARK  4 active torsions:
REMARK  status: ('A' for Active; 'I' for Inactive)
REMARK    1  A    between atoms: O_2  and  C_12
REMARK    2  A    between atoms: O_4  and  C_14
REMARK    3  A    between atoms: O_5  and  C_20
REMARK    4  A    between atoms: C_8  and  C_9
REMARK                            x       y       z     vdW  Elec       q    Type
REMARK                         _______ _______ _______ _____ _____    ______ ____
ROOT
ATOM      1  O   UNL     1      99.825   1.756  27.411  0.00  0.00    +0.000 OA
ATOM      2  O   UNL     1      96.224   2.507  25.660  0.00  0.00    +0.000 OA
ATOM      3  C   UNL     1      98.386   3.294  26.201  0.00  0.00    +0.000 A 
ATOM      4  C   UNL     1      99.593   2.971  26.816  0.00  0.00    +0.000 A 
ATOM      5  C   UNL     1      98.807   0.813  27.405  0.00  0.00    +0.000 A 
ATOM      6  C   UNL     1      97.307   2.293  26.184  0.00  0.00    +0.000 A 
ATOM      7  C   UNL     1      97.605   1.003  26.839  0.00  0.00    +0.000 A 
ATOM      8  C   UNL     1      98.207   4.546  25.611  0.00  0.00    +0.000 A 
ATOM      9  C   UNL     1     100.632   3.901  26.844  0.00  0.00    +0.000 A 
ATOM     10  C   UNL     1     100.458   5.154  26.256  0.00  0.00    +0.000 A 
ATOM     11  C   UNL     1      99.246   5.476  25.640  0.00  0.00    +0.000 A 
ENDROOT
BRANCH   5  12
ATOM     12  C   UNL     1      99.164  -0.458  28.066  0.00  0.00    +0.000 A 
ATOM     13  C   UNL     1      98.343  -1.579  27.919  0.00  0.00    +0.000 A 
ATOM     14  C   UNL     1     100.324  -0.546  28.838  0.00  0.00    +0.000 A 
ATOM     15  C   UNL     1      98.681  -2.781  28.542  0.00  0.00    +0.000 A 
ATOM     16  C   UNL     1     100.661  -1.747  29.462  0.00  0.00    +0.000 A 
ATOM     17  C   UNL     1      99.839  -2.865  29.314  0.00  0.00    +0.000 A 
BRANCH  17  18
ATOM     18  O   UNL     1     100.169  -4.037  29.921  0.00  0.00    +0.000 OA
ATOM     19  H   UNL     1     100.916  -4.439  29.445  0.00  0.00    +0.000 HD
ENDBRANCH  17  18
ENDBRANCH   5  12
BRANCH   8  20
ATOM     20  O   UNL     1      97.046   4.910  24.997  0.00  0.00    +0.000 OA
ATOM     21  H   UNL     1      96.305   4.378  25.328  0.00  0.00    +0.000 HD
ENDBRANCH   8  20
BRANCH  10  22
ATOM     22  O   UNL     1     101.470   6.064  26.282  0.00  0.00    +0.000 OA
ATOM     23  H   UNL     1     101.709   6.296  25.368  0.00  0.00    +0.000 HD
ENDBRANCH  10  22
TORSDOF 4
