REMARK VINA RESULT:      -5.5     13.576     15.674
REMARK  Name = 5280443
REMARK  4 active torsions:
REMARK  status: ('A' for Active; 'I' for Inactive)
REMARK    1  A    between atoms: O_2  and  C_12
REMARK    2  A    between atoms: O_4  and  C_14
REMARK    3  A    between atoms: O_5  and  C_20
REMARK    4  A    between atoms: C_8  and  C_9
REMARK                            x       y       z     vdW  Elec       q    Type
REMARK                         _______ _______ _______ _____ _____    ______ ____
ROOT
ATOM      1  O   UNL     1      97.704   3.442  27.746  0.00  0.00    +0.000 OA
ATOM      2  O   UNL     1     100.437   5.624  25.656  0.00  0.00    +0.000 OA
ATOM      3  C   UNL     1      98.375   5.580  26.809  0.00  0.00    +0.000 A 
ATOM      4  C   UNL     1      97.483   4.777  27.516  0.00  0.00    +0.000 A 
ATOM      5  C   UNL     1      98.863   2.869  27.244  0.00  0.00    +0.000 A 
ATOM      6  C   UNL     1      99.610   4.978  26.283  0.00  0.00    +0.000 A 
ATOM      7  C   UNL     1      99.800   3.539  26.554  0.00  0.00    +0.000 A 
ATOM      8  C   UNL     1      98.097   6.934  26.606  0.00  0.00    +0.000 A 
ATOM      9  C   UNL     1      96.306   5.323  28.027  0.00  0.00    +0.000 A 
ATOM     10  C   UNL     1      96.025   6.675  27.827  0.00  0.00    +0.000 A 
ATOM     11  C   UNL     1      96.919   7.479  27.117  0.00  0.00    +0.000 A 
ENDROOT
BRANCH   5  12
ATOM     12  C   UNL     1      99.004   1.432  27.552  0.00  0.00    +0.000 A 
ATOM     13  C   UNL     1     100.110   0.975  28.273  0.00  0.00    +0.000 A 
ATOM     14  C   UNL     1      98.031   0.524  27.127  0.00  0.00    +0.000 A 
ATOM     15  C   UNL     1     100.243  -0.383  28.566  0.00  0.00    +0.000 A 
ATOM     16  C   UNL     1      98.164  -0.833  27.420  0.00  0.00    +0.000 A 
ATOM     17  C   UNL     1      99.270  -1.287  28.139  0.00  0.00    +0.000 A 
BRANCH  17  18
ATOM     18  O   UNL     1      99.399  -2.611  28.425  0.00  0.00    +0.000 OA
ATOM     19  H   UNL     1      99.627  -2.709  29.366  0.00  0.00    +0.000 HD
ENDBRANCH  17  18
ENDBRANCH   5  12
BRANCH   8  20
ATOM     20  O   UNL     1      98.937   7.761  25.923  0.00  0.00    +0.000 OA
ATOM     21  H   UNL     1      98.969   7.513  24.985  0.00  0.00    +0.000 HD
ENDBRANCH   8  20
BRANCH  10  22
ATOM     22  O   UNL     1      94.876   7.212  28.324  0.00  0.00    +0.000 OA
ATOM     23  H   UNL     1      94.431   6.547  28.877  0.00  0.00    +0.000 HD
ENDBRANCH  10  22
TORSDOF 4
