REMARK VINA RESULT:      -5.5     14.575     16.554
REMARK  Name = 5280443
REMARK  4 active torsions:
REMARK  status: ('A' for Active; 'I' for Inactive)
REMARK    1  A    between atoms: O_2  and  C_12
REMARK    2  A    between atoms: O_4  and  C_14
REMARK    3  A    between atoms: O_5  and  C_20
REMARK    4  A    between atoms: C_8  and  C_9
REMARK                            x       y       z     vdW  Elec       q    Type
REMARK                         _______ _______ _______ _____ _____    ______ ____
ROOT
ATOM      1  O   UNL     1      98.787   3.727  26.245  0.00  0.00    +0.000 OA
ATOM      2  O   UNL     1     101.932   5.603  28.030  0.00  0.00    +0.000 OA
ATOM      3  C   UNL     1     100.123   5.737  26.515  0.00  0.00    +0.000 A 
ATOM      4  C   UNL     1      99.064   5.036  25.943  0.00  0.00    +0.000 A 
ATOM      5  C   UNL     1      99.605   3.072  27.154  0.00  0.00    +0.000 A 
ATOM      6  C   UNL     1     100.987   5.049  27.487  0.00  0.00    +0.000 A 
ATOM      7  C   UNL     1     100.650   3.640  27.777  0.00  0.00    +0.000 A 
ATOM      8  C   UNL     1     100.357   7.070  26.170  0.00  0.00    +0.000 A 
ATOM      9  C   UNL     1      98.229   5.666  25.020  0.00  0.00    +0.000 A 
ATOM     10  C   UNL     1      98.458   6.997  24.672  0.00  0.00    +0.000 A 
ATOM     11  C   UNL     1      99.521   7.698  25.246  0.00  0.00    +0.000 A 
ENDROOT
BRANCH   5  12
ATOM     12  C   UNL     1      99.215   1.672  27.410  0.00  0.00    +0.000 A 
ATOM     13  C   UNL     1      98.086   1.132  26.787  0.00  0.00    +0.000 A 
ATOM     14  C   UNL     1      99.973   0.879  28.275  0.00  0.00    +0.000 A 
ATOM     15  C   UNL     1      97.718  -0.192  27.029  0.00  0.00    +0.000 A 
ATOM     16  C   UNL     1      99.605  -0.445  28.516  0.00  0.00    +0.000 A 
ATOM     17  C   UNL     1      98.477  -0.980  27.894  0.00  0.00    +0.000 A 
BRANCH  17  18
ATOM     18  O   UNL     1      98.119  -2.271  28.129  0.00  0.00    +0.000 OA
ATOM     19  H   UNL     1      97.764  -2.340  29.032  0.00  0.00    +0.000 HD
ENDBRANCH  17  18
ENDBRANCH   5  12
BRANCH   8  20
ATOM     20  O   UNL     1     101.378   7.798  26.701  0.00  0.00    +0.000 OA
ATOM     21  H   UNL     1     101.054   8.367  27.417  0.00  0.00    +0.000 HD
ENDBRANCH   8  20
BRANCH  10  22
ATOM     22  O   UNL     1      97.645   7.615  23.771  0.00  0.00    +0.000 OA
ATOM     23  H   UNL     1      96.874   7.046  23.600  0.00  0.00    +0.000 HD
ENDBRANCH  10  22
TORSDOF 4
