REMARK VINA RESULT:      -5.3     14.088     15.025
REMARK  Name = 5280443
REMARK  4 active torsions:
REMARK  status: ('A' for Active; 'I' for Inactive)
REMARK    1  A    between atoms: O_2  and  C_12
REMARK    2  A    between atoms: O_4  and  C_14
REMARK    3  A    between atoms: O_5  and  C_20
REMARK    4  A    between atoms: C_8  and  C_9
REMARK                            x       y       z     vdW  Elec       q    Type
REMARK                         _______ _______ _______ _____ _____    ______ ____
ROOT
ATOM      1  O   UNL     1      99.830   2.710  27.724  0.00  0.00    +0.000 OA
ATOM      2  O   UNL     1      97.474  -0.472  26.768  0.00  0.00    +0.000 OA
ATOM      3  C   UNL     1      99.194   0.402  28.132  0.00  0.00    +0.000 A 
ATOM      4  C   UNL     1      99.966   1.528  28.408  0.00  0.00    +0.000 A 
ATOM      5  C   UNL     1      98.889   2.781  26.708  0.00  0.00    +0.000 A 
ATOM      6  C   UNL     1      98.187   0.476  27.062  0.00  0.00    +0.000 A 
ATOM      7  C   UNL     1      98.082   1.768  26.354  0.00  0.00    +0.000 A 
ATOM      8  C   UNL     1      99.374  -0.774  28.863  0.00  0.00    +0.000 A 
ATOM      9  C   UNL     1     100.925   1.486  29.420  0.00  0.00    +0.000 A 
ATOM     10  C   UNL     1     101.109   0.312  30.152  0.00  0.00    +0.000 A 
ATOM     11  C   UNL     1     100.335  -0.816  29.874  0.00  0.00    +0.000 A 
ENDROOT
BRANCH   5  12
ATOM     12  C   UNL     1      98.823   4.096  26.042  0.00  0.00    +0.000 A 
ATOM     13  C   UNL     1      99.986   4.852  25.865  0.00  0.00    +0.000 A 
ATOM     14  C   UNL     1      97.600   4.592  25.585  0.00  0.00    +0.000 A 
ATOM     15  C   UNL     1      99.924   6.095  25.235  0.00  0.00    +0.000 A 
ATOM     16  C   UNL     1      97.539   5.835  24.956  0.00  0.00    +0.000 A 
ATOM     17  C   UNL     1      98.700   6.587  24.781  0.00  0.00    +0.000 A 
BRANCH  17  18
ATOM     18  O   UNL     1      98.640   7.799  24.166  0.00  0.00    +0.000 OA
ATOM     19  H   UNL     1      98.228   8.439  24.772  0.00  0.00    +0.000 HD
ENDBRANCH  17  18
ENDBRANCH   5  12
BRANCH   8  20
ATOM     20  O   UNL     1      98.645  -1.902  28.632  0.00  0.00    +0.000 OA
ATOM     21  H   UNL     1      97.797  -1.860  29.101  0.00  0.00    +0.000 HD
ENDBRANCH   8  20
BRANCH  10  22
ATOM     22  O   UNL     1     102.045   0.267  31.140  0.00  0.00    +0.000 OA
ATOM     23  H   UNL     1     102.568   1.087  31.118  0.00  0.00    +0.000 HD
ENDBRANCH  10  22
TORSDOF 4
