REMARK VINA RESULT:      -5.4     13.422     15.709
REMARK  Name = 5280443
REMARK  4 active torsions:
REMARK  status: ('A' for Active; 'I' for Inactive)
REMARK    1  A    between atoms: O_2  and  C_12
REMARK    2  A    between atoms: O_4  and  C_14
REMARK    3  A    between atoms: O_5  and  C_20
REMARK    4  A    between atoms: C_8  and  C_9
REMARK                            x       y       z     vdW  Elec       q    Type
REMARK                         _______ _______ _______ _____ _____    ______ ____
ROOT
ATOM      1  O   UNL     1      97.805   1.791  27.994  0.00  0.00    +0.000 OA
ATOM      2  O   UNL     1     100.523   4.527  26.682  0.00  0.00    +0.000 OA
ATOM      3  C   UNL     1      98.303   4.082  27.359  0.00  0.00    +0.000 A 
ATOM      4  C   UNL     1      97.426   3.097  27.806  0.00  0.00    +0.000 A 
ATOM      5  C   UNL     1      99.117   1.439  27.719  0.00  0.00    +0.000 A 
ATOM      6  C   UNL     1      99.699   3.714  27.075  0.00  0.00    +0.000 A 
ATOM      7  C   UNL     1     100.057   2.297  27.290  0.00  0.00    +0.000 A 
ATOM      8  C   UNL     1      97.861   5.395  27.186  0.00  0.00    +0.000 A 
ATOM      9  C   UNL     1      96.098   3.419  28.085  0.00  0.00    +0.000 A 
ATOM     10  C   UNL     1      95.652   4.730  27.913  0.00  0.00    +0.000 A 
ATOM     11  C   UNL     1      96.532   5.717  27.464  0.00  0.00    +0.000 A 
ENDROOT
BRANCH   5  12
ATOM     12  C   UNL     1      99.419   0.014  27.960  0.00  0.00    +0.000 A 
ATOM     13  C   UNL     1     100.691  -0.370  28.393  0.00  0.00    +0.000 A 
ATOM     14  C   UNL     1      98.434  -0.956  27.759  0.00  0.00    +0.000 A 
ATOM     15  C   UNL     1     100.976  -1.716  28.623  0.00  0.00    +0.000 A 
ATOM     16  C   UNL     1      98.720  -2.302  27.989  0.00  0.00    +0.000 A 
ATOM     17  C   UNL     1      99.990  -2.683  28.420  0.00  0.00    +0.000 A 
BRANCH  17  18
ATOM     18  O   UNL     1     100.268  -3.995  28.644  0.00  0.00    +0.000 OA
ATOM     19  H   UNL     1     101.197  -4.078  28.919  0.00  0.00    +0.000 HD
ENDBRANCH  17  18
ENDBRANCH   5  12
BRANCH   8  20
ATOM     20  O   UNL     1      98.680   6.394  26.752  0.00  0.00    +0.000 OA
ATOM     21  H   UNL     1      99.610   6.137  26.847  0.00  0.00    +0.000 HD
ENDBRANCH   8  20
BRANCH  10  22
ATOM     22  O   UNL     1      94.356   5.049  28.184  0.00  0.00    +0.000 OA
ATOM     23  H   UNL     1      94.105   5.826  27.656  0.00  0.00    +0.000 HD
ENDBRANCH  10  22
TORSDOF 4
