REMARK VINA RESULT:      -4.5      5.216      9.685
REMARK  Name = 118736856
REMARK  9 active torsions:
REMARK  status: ('A' for Active; 'I' for Inactive)
REMARK    1  A    between atoms: O_2  and  C_11
REMARK    2  A    between atoms: O_2  and  C_15
REMARK    3  A    between atoms: O_3  and  C_19
REMARK    4  A    between atoms: O_3  and  C_27
REMARK    5  A    between atoms: N_5  and  C_8
REMARK    6  A    between atoms: N_5  and  C_14
REMARK    7  A    between atoms: N_6  and  C_25
REMARK    8  A    between atoms: C_15  and  C_19
REMARK    9  A    between atoms: C_23  and  C_26
REMARK                            x       y       z     vdW  Elec       q    Type
REMARK                         _______ _______ _______ _____ _____    ______ ____
ROOT
ATOM      1  O   UNL     1      84.015  -1.106  27.829  0.00  0.00    +0.000 OA
ATOM      2  N   UNL     1      84.282   0.574  26.236  0.00  0.00    +0.000 N 
ATOM      3  C   UNL     1      82.272   2.000  27.674  0.00  0.00    +0.000 A 
ATOM      4  C   UNL     1      82.889   2.590  26.462  0.00  0.00    +0.000 A 
ATOM      5  C   UNL     1      82.681   0.787  28.073  0.00  0.00    +0.000 A 
ATOM      6  C   UNL     1      83.882   1.867  25.765  0.00  0.00    +0.000 A 
ATOM      7  C   UNL     1      82.516   3.858  25.975  0.00  0.00    +0.000 A 
ATOM      8  C   UNL     1      83.719  -0.002  27.370  0.00  0.00    +0.000 A 
ATOM      9  C   UNL     1      84.465   2.433  24.613  0.00  0.00    +0.000 A 
ATOM     10  C   UNL     1      83.104   4.402  24.832  0.00  0.00    +0.000 A 
ATOM     11  C   UNL     1      84.079   3.690  24.152  0.00  0.00    +0.000 A 
ATOM     12  C   UNL     1      85.311  -0.161  25.503  0.00  0.00    +0.000 C 
ENDROOT
BRANCH  10  15
ATOM     13  S   UNL     1      81.204   6.373  24.866  0.00  0.00    +0.000 S 
ATOM     14  N   UNL     1      82.671   7.768  23.258  0.00  0.00    +0.000 NA
ATOM     15  C   UNL     1      82.701   5.704  24.360  0.00  0.00    +0.000 A 
ATOM     16  C   UNL     1      83.339   6.586  23.513  0.00  0.00    +0.000 A 
ATOM     17  C   UNL     1      81.534   7.765  23.917  0.00  0.00    +0.000 A 
ENDBRANCH  10  15
BRANCH   3  18
ATOM     18  N   UNL     1      81.309   2.689  28.361  0.00  0.00    +0.000 N 
ATOM     19  H   UNL     1      80.347   2.622  28.054  0.00  0.00    +0.000 HD
BRANCH  18  20
ATOM     20  C   UNL     1      81.561   3.367  29.613  0.00  0.00    +0.000 C 
ATOM     21  C   UNL     1      81.267   2.417  30.777  0.00  0.00    +0.000 C 
ATOM     22  C   UNL     1      83.010   3.859  29.644  0.00  0.00    +0.000 C 
ATOM     23  C   UNL     1      83.061   3.546  32.151  0.00  0.00    +0.000 C 
ATOM     24  C   UNL     1      81.615   3.056  32.118  0.00  0.00    +0.000 C 
ATOM     25  C   UNL     1      83.356   4.493  30.988  0.00  0.00    +0.000 C 
BRANCH  23  26
ATOM     26  O   UNL     1      83.284   4.220  33.385  0.00  0.00    +0.000 OA
BRANCH  26  27
ATOM     27  C   UNL     1      83.808   3.340  34.369  0.00  0.00    +0.000 C 
BRANCH  27  28
ATOM     28  C   UNL     1      84.937   2.532  33.758  0.00  0.00    +0.000 C 
BRANCH  28  29
ATOM     29  O   UNL     1      84.743   1.156  34.066  0.00  0.00    +0.000 OA
ATOM     30  C   UNL     1      83.867   0.988  35.171  0.00  0.00    +0.000 C 
ENDBRANCH  28  29
ENDBRANCH  27  28
ENDBRANCH  26  27
ENDBRANCH  23  26
ENDBRANCH  18  20
ENDBRANCH   3  18
TORSDOF 7
