REMARK VINA RESULT:      -4.9     13.988     15.153
REMARK  Name = 155598690
REMARK  7 active torsions:
REMARK  status: ('A' for Active; 'I' for Inactive)
REMARK    1  A    between atoms: O_1  and  C_11
REMARK    2  A    between atoms: O_1  and  C_16
REMARK    3  A    between atoms: O_3  and  C_19
REMARK    4  A    between atoms: O_3  and  C_25
REMARK    5  A    between atoms: N_4  and  C_10
REMARK    6  A    between atoms: C_16  and  C_19
REMARK    7  A    between atoms: C_17  and  C_18
REMARK                            x       y       z     vdW  Elec       q    Type
REMARK                         _______ _______ _______ _____ _____    ______ ____
ROOT
ATOM      1  O   UNL     1      97.953   1.004  26.254  0.00  0.00    +0.000 OA
ATOM      2  N   UNL     1      99.537   0.854  27.941  0.00  0.00    +0.000 N 
ATOM      3  C   UNL     1      98.730   1.535  27.043  0.00  0.00    +0.000 C 
ATOM      4  H   UNL     1     100.189   1.381  28.517  0.00  0.00    +0.000 HD
ENDROOT
BRANCH   3  10
ATOM      5  N   UNL     1      97.787   3.741  27.435  0.00  0.00    +0.000 NA
ATOM      6  N   UNL     1     101.239   3.258  26.253  0.00  0.00    +0.000 N 
ATOM      7  N   UNL     1      98.989   5.831  27.101  0.00  0.00    +0.000 NA
ATOM      8  N   UNL     1      96.791   5.798  27.841  0.00  0.00    +0.000 N 
ATOM      9  N   UNL     1      95.490   7.527  28.337  0.00  0.00    +0.000 NA
ATOM     10  C   UNL     1      98.859   3.015  27.049  0.00  0.00    +0.000 A 
ATOM     11  C   UNL     1     100.010   3.689  26.683  0.00  0.00    +0.000 A 
ATOM     12  C   UNL     1     100.050   5.079  26.717  0.00  0.00    +0.000 A 
ATOM     13  C   UNL     1      97.916   5.086  27.438  0.00  0.00    +0.000 A 
ATOM     14  C   UNL     1     101.340   5.481  26.295  0.00  0.00    +0.000 A 
ATOM     15  C   UNL     1     102.053   4.336  26.015  0.00  0.00    +0.000 A 
ATOM     16  C   UNL     1      95.594   5.267  28.228  0.00  0.00    +0.000 A 
ATOM     17  C   UNL     1      96.682   7.157  27.923  0.00  0.00    +0.000 A 
ATOM     18  C   UNL     1      94.807   6.353  28.529  0.00  0.00    +0.000 A 
ATOM     19  H   UNL     1     101.508   2.290  26.128  0.00  0.00    +0.000 HD
ENDBRANCH   3  10
BRANCH   2  20
ATOM     20  C   UNL     1      99.546  -0.586  28.037  0.00  0.00    +0.000 C 
ATOM     21  C   UNL     1      99.976  -3.092  29.539  0.00  0.00    +0.000 C 
ATOM     22  C   UNL     1     100.957  -1.095  28.340  0.00  0.00    +0.000 C 
ATOM     23  C   UNL     1      98.538  -1.064  29.087  0.00  0.00    +0.000 C 
ATOM     24  C   UNL     1     100.980  -2.614  28.493  0.00  0.00    +0.000 C 
ATOM     25  C   UNL     1      98.569  -2.582  29.236  0.00  0.00    +0.000 C 
BRANCH  21  26
ATOM     26  O   UNL     1      99.950  -4.514  29.563  0.00  0.00    +0.000 OA
BRANCH  26  27
ATOM     27  C   UNL     1      98.757  -5.023  28.986  0.00  0.00    +0.000 C 
BRANCH  27  28
ATOM     28  C   UNL     1      99.093  -5.700  27.670  0.00  0.00    +0.000 C 
BRANCH  28  29
ATOM     29  O   UNL     1      97.946  -5.672  26.829  0.00  0.00    +0.000 OA
ATOM     30  C   UNL     1      98.305  -5.489  25.466  0.00  0.00    +0.000 C 
ENDBRANCH  28  29
ENDBRANCH  27  28
ENDBRANCH  26  27
ENDBRANCH  21  26
ENDBRANCH   2  20
TORSDOF 6
