REMARK VINA RESULT:      -4.5      3.421      9.426
REMARK  Name = 155598690
REMARK  7 active torsions:
REMARK  status: ('A' for Active; 'I' for Inactive)
REMARK    1  A    between atoms: O_1  and  C_11
REMARK    2  A    between atoms: O_1  and  C_16
REMARK    3  A    between atoms: O_3  and  C_19
REMARK    4  A    between atoms: O_3  and  C_25
REMARK    5  A    between atoms: N_4  and  C_10
REMARK    6  A    between atoms: C_16  and  C_19
REMARK    7  A    between atoms: C_17  and  C_18
REMARK                            x       y       z     vdW  Elec       q    Type
REMARK                         _______ _______ _______ _____ _____    ______ ____
ROOT
ATOM      1  O   UNL     1      86.304  -1.691  20.832  0.00  0.00    +0.000 OA
ATOM      2  N   UNL     1      85.084   0.270  21.037  0.00  0.00    +0.000 N 
ATOM      3  C   UNL     1      85.852  -0.657  20.349  0.00  0.00    +0.000 C 
ATOM      4  H   UNL     1      84.801   1.124  20.565  0.00  0.00    +0.000 HD
ENDROOT
BRANCH   3  10
ATOM      5  N   UNL     1      87.437  -0.349  18.532  0.00  0.00    +0.000 NA
ATOM      6  N   UNL     1      83.813   0.103  18.079  0.00  0.00    +0.000 N 
ATOM      7  N   UNL     1      86.824   0.277  16.262  0.00  0.00    +0.000 NA
ATOM      8  N   UNL     1      89.034  -0.080  16.869  0.00  0.00    +0.000 N 
ATOM      9  N   UNL     1      90.844   0.074  15.592  0.00  0.00    +0.000 NA
ATOM     10  C   UNL     1      86.147  -0.329  18.931  0.00  0.00    +0.000 A 
ATOM     11  C   UNL     1      85.178  -0.004  17.998  0.00  0.00    +0.000 A 
ATOM     12  C   UNL     1      85.537   0.291  16.687  0.00  0.00    +0.000 A 
ATOM     13  C   UNL     1      87.694  -0.049  17.240  0.00  0.00    +0.000 A 
ATOM     14  C   UNL     1      84.350   0.580  15.972  0.00  0.00    +0.000 A 
ATOM     15  C   UNL     1      83.301   0.457  16.857  0.00  0.00    +0.000 A 
ATOM     16  C   UNL     1      90.091  -0.382  17.680  0.00  0.00    +0.000 A 
ATOM     17  C   UNL     1      89.535   0.186  15.626  0.00  0.00    +0.000 A 
ATOM     18  C   UNL     1      91.197  -0.280  16.870  0.00  0.00    +0.000 A 
ATOM     19  H   UNL     1      83.264  -0.055  18.914  0.00  0.00    +0.000 HD
ENDBRANCH   3  10
BRANCH   2  20
ATOM     20  C   UNL     1      84.735   0.106  22.428  0.00  0.00    +0.000 C 
ATOM     21  C   UNL     1      83.894   1.185  25.045  0.00  0.00    +0.000 C 
ATOM     22  C   UNL     1      85.715   0.871  23.321  0.00  0.00    +0.000 C 
ATOM     23  C   UNL     1      83.289   0.543  22.677  0.00  0.00    +0.000 C 
ATOM     24  C   UNL     1      85.336   0.750  24.795  0.00  0.00    +0.000 C 
ATOM     25  C   UNL     1      82.918   0.422  24.153  0.00  0.00    +0.000 C 
BRANCH  21  26
ATOM     26  O   UNL     1      83.551   0.946  26.405  0.00  0.00    +0.000 OA
BRANCH  26  27
ATOM     27  C   UNL     1      82.631   1.914  26.888  0.00  0.00    +0.000 C 
BRANCH  27  28
ATOM     28  C   UNL     1      83.388   3.171  27.269  0.00  0.00    +0.000 C 
BRANCH  28  29
ATOM     29  O   UNL     1      83.197   4.152  26.256  0.00  0.00    +0.000 OA
ATOM     30  C   UNL     1      84.204   5.154  26.305  0.00  0.00    +0.000 C 
ENDBRANCH  28  29
ENDBRANCH  27  28
ENDBRANCH  26  27
ENDBRANCH  21  26
ENDBRANCH   2  20
TORSDOF 6
