REMARK VINA RESULT:      -4.9     14.944     16.014
REMARK  Name = 155598690
REMARK  7 active torsions:
REMARK  status: ('A' for Active; 'I' for Inactive)
REMARK    1  A    between atoms: O_1  and  C_11
REMARK    2  A    between atoms: O_1  and  C_16
REMARK    3  A    between atoms: O_3  and  C_19
REMARK    4  A    between atoms: O_3  and  C_25
REMARK    5  A    between atoms: N_4  and  C_10
REMARK    6  A    between atoms: C_16  and  C_19
REMARK    7  A    between atoms: C_17  and  C_18
REMARK                            x       y       z     vdW  Elec       q    Type
REMARK                         _______ _______ _______ _____ _____    ______ ____
ROOT
ATOM      1  O   UNL     1      98.675   2.111  26.053  0.00  0.00    +0.000 OA
ATOM      2  N   UNL     1      99.839   1.537  27.974  0.00  0.00    +0.000 N 
ATOM      3  C   UNL     1      99.249   2.427  27.091  0.00  0.00    +0.000 C 
ATOM      4  H   UNL     1     100.339   1.900  28.782  0.00  0.00    +0.000 HD
ENDROOT
BRANCH   3  10
ATOM      5  N   UNL     1     100.091   4.189  28.539  0.00  0.00    +0.000 NA
ATOM      6  N   UNL     1      97.966   4.890  25.618  0.00  0.00    +0.000 N 
ATOM      7  N   UNL     1      99.638   6.560  28.228  0.00  0.00    +0.000 NA
ATOM      8  N   UNL     1     100.947   5.793  29.982  0.00  0.00    +0.000 N 
ATOM      9  N   UNL     1     101.942   6.987  31.568  0.00  0.00    +0.000 NA
ATOM     10  C   UNL     1      99.359   3.865  27.451  0.00  0.00    +0.000 A 
ATOM     11  C   UNL     1      98.755   4.885  26.739  0.00  0.00    +0.000 A 
ATOM     12  C   UNL     1      98.908   6.208  27.142  0.00  0.00    +0.000 A 
ATOM     13  C   UNL     1     100.185   5.500  28.856  0.00  0.00    +0.000 A 
ATOM     14  C   UNL     1      98.187   7.019  26.232  0.00  0.00    +0.000 A 
ATOM     15  C   UNL     1      97.616   6.179  25.301  0.00  0.00    +0.000 A 
ATOM     16  C   UNL     1     101.596   4.892  30.777  0.00  0.00    +0.000 A 
ATOM     17  C   UNL     1     101.184   7.038  30.495  0.00  0.00    +0.000 A 
ATOM     18  C   UNL     1     102.203   5.652  31.748  0.00  0.00    +0.000 A 
ATOM     19  H   UNL     1      97.681   4.069  25.099  0.00  0.00    +0.000 HD
ENDBRANCH   3  10
BRANCH   2  20
ATOM     20  C   UNL     1      99.840   0.111  27.751  0.00  0.00    +0.000 C 
ATOM     21  C   UNL     1      99.729  -2.676  28.723  0.00  0.00    +0.000 C 
ATOM     22  C   UNL     1     101.047  -0.539  28.433  0.00  0.00    +0.000 C 
ATOM     23  C   UNL     1      98.523  -0.512  28.227  0.00  0.00    +0.000 C 
ATOM     24  C   UNL     1     101.041  -2.054  28.249  0.00  0.00    +0.000 C 
ATOM     25  C   UNL     1      98.527  -2.026  28.043  0.00  0.00    +0.000 C 
BRANCH  21  26
ATOM     26  O   UNL     1      99.725  -4.068  28.425  0.00  0.00    +0.000 OA
BRANCH  26  27
ATOM     27  C   UNL     1     100.442  -4.347  27.232  0.00  0.00    +0.000 C 
BRANCH  27  28
ATOM     28  C   UNL     1      99.719  -5.436  26.463  0.00  0.00    +0.000 C 
BRANCH  28  29
ATOM     29  O   UNL     1      98.442  -4.953  26.065  0.00  0.00    +0.000 OA
ATOM     30  C   UNL     1      97.984  -5.602  24.887  0.00  0.00    +0.000 C 
ENDBRANCH  28  29
ENDBRANCH  27  28
ENDBRANCH  26  27
ENDBRANCH  21  26
ENDBRANCH   2  20
TORSDOF 6
