REMARK VINA RESULT:      -5.0     15.359     17.877
REMARK  Name = 118736856
REMARK  9 active torsions:
REMARK  status: ('A' for Active; 'I' for Inactive)
REMARK    1  A    between atoms: O_2  and  C_11
REMARK    2  A    between atoms: O_2  and  C_15
REMARK    3  A    between atoms: O_3  and  C_19
REMARK    4  A    between atoms: O_3  and  C_27
REMARK    5  A    between atoms: N_5  and  C_8
REMARK    6  A    between atoms: N_5  and  C_14
REMARK    7  A    between atoms: N_6  and  C_25
REMARK    8  A    between atoms: C_15  and  C_19
REMARK    9  A    between atoms: C_23  and  C_26
REMARK                            x       y       z     vdW  Elec       q    Type
REMARK                         _______ _______ _______ _____ _____    ______ ____
ROOT
ATOM      1  O   UNL     1      99.331   5.742  26.472  0.00  0.00    +0.000 OA
ATOM      2  N   UNL     1      98.453   3.584  26.404  0.00  0.00    +0.000 N 
ATOM      3  C   UNL     1     100.504   2.892  28.262  0.00  0.00    +0.000 A 
ATOM      4  C   UNL     1      99.543   1.868  27.791  0.00  0.00    +0.000 A 
ATOM      5  C   UNL     1     100.386   4.144  27.796  0.00  0.00    +0.000 A 
ATOM      6  C   UNL     1      98.535   2.232  26.870  0.00  0.00    +0.000 A 
ATOM      7  C   UNL     1      99.599   0.531  28.230  0.00  0.00    +0.000 A 
ATOM      8  C   UNL     1      99.343   4.564  26.832  0.00  0.00    +0.000 A 
ATOM      9  C   UNL     1      97.623   1.254  26.425  0.00  0.00    +0.000 A 
ATOM     10  C   UNL     1      98.687  -0.424  27.778  0.00  0.00    +0.000 A 
ATOM     11  C   UNL     1      97.699  -0.062  26.876  0.00  0.00    +0.000 A 
ATOM     12  C   UNL     1      97.404   3.945  25.452  0.00  0.00    +0.000 C 
ENDROOT
BRANCH  10  15
ATOM     13  S   UNL     1     100.255  -2.638  28.147  0.00  0.00    +0.000 S 
ATOM     14  N   UNL     1      98.220  -3.869  29.159  0.00  0.00    +0.000 NA
ATOM     15  C   UNL     1      98.771  -1.785  28.249  0.00  0.00    +0.000 A 
ATOM     16  C   UNL     1      97.808  -2.597  28.812  0.00  0.00    +0.000 A 
ATOM     17  C   UNL     1      99.491  -4.003  28.854  0.00  0.00    +0.000 A 
ENDBRANCH  10  15
BRANCH   3  18
ATOM     18  N   UNL     1     101.487   2.555  29.155  0.00  0.00    +0.000 N 
ATOM     19  H   UNL     1     102.453   2.709  28.900  0.00  0.00    +0.000 HD
BRANCH  18  20
ATOM     20  C   UNL     1     101.215   2.157  30.519  0.00  0.00    +0.000 C 
ATOM     21  C   UNL     1     101.948   0.848  30.823  0.00  0.00    +0.000 C 
ATOM     22  C   UNL     1     101.645   3.274  31.472  0.00  0.00    +0.000 C 
ATOM     23  C   UNL     1     102.204   1.553  33.235  0.00  0.00    +0.000 C 
ATOM     24  C   UNL     1     101.774   0.439  32.283  0.00  0.00    +0.000 C 
ATOM     25  C   UNL     1     101.474   2.861  32.931  0.00  0.00    +0.000 C 
BRANCH  23  26
ATOM     26  O   UNL     1     101.918   1.146  34.569  0.00  0.00    +0.000 OA
BRANCH  26  27
ATOM     27  C   UNL     1     100.744   0.349  34.629  0.00  0.00    +0.000 C 
BRANCH  27  28
ATOM     28  C   UNL     1     100.048   0.594  35.954  0.00  0.00    +0.000 C 
BRANCH  28  29
ATOM     29  O   UNL     1      98.642   0.632  35.739  0.00  0.00    +0.000 OA
ATOM     30  C   UNL     1      98.260  -0.179  34.638  0.00  0.00    +0.000 C 
ENDBRANCH  28  29
ENDBRANCH  27  28
ENDBRANCH  26  27
ENDBRANCH  23  26
ENDBRANCH  18  20
ENDBRANCH   3  18
TORSDOF 7
