REMARK VINA RESULT:      -5.0     14.353     15.684
REMARK  Name = 155598690
REMARK  7 active torsions:
REMARK  status: ('A' for Active; 'I' for Inactive)
REMARK    1  A    between atoms: O_1  and  C_11
REMARK    2  A    between atoms: O_1  and  C_16
REMARK    3  A    between atoms: O_3  and  C_19
REMARK    4  A    between atoms: O_3  and  C_25
REMARK    5  A    between atoms: N_4  and  C_10
REMARK    6  A    between atoms: C_16  and  C_19
REMARK    7  A    between atoms: C_17  and  C_18
REMARK                            x       y       z     vdW  Elec       q    Type
REMARK                         _______ _______ _______ _____ _____    ______ ____
ROOT
ATOM      1  O   UNL     1     101.360   2.564  26.943  0.00  0.00    +0.000 OA
ATOM      2  N   UNL     1      99.413   1.832  27.967  0.00  0.00    +0.000 N 
ATOM      3  C   UNL     1     100.253   2.791  27.422  0.00  0.00    +0.000 C 
ATOM      4  H   UNL     1      98.536   2.126  28.389  0.00  0.00    +0.000 HD
ENDROOT
BRANCH   3  10
ATOM      5  N   UNL     1      98.434   4.380  27.695  0.00  0.00    +0.000 NA
ATOM      6  N   UNL     1     101.889   5.443  27.008  0.00  0.00    +0.000 N 
ATOM      7  N   UNL     1      98.684   6.797  27.551  0.00  0.00    +0.000 NA
ATOM      8  N   UNL     1      96.627   5.811  27.973  0.00  0.00    +0.000 N 
ATOM      9  N   UNL     1      94.672   6.813  28.295  0.00  0.00    +0.000 NA
ATOM     10  C   UNL     1      99.750   4.188  27.458  0.00  0.00    +0.000 A 
ATOM     11  C   UNL     1     100.550   5.300  27.263  0.00  0.00    +0.000 A 
ATOM     12  C   UNL     1     100.000   6.577  27.314  0.00  0.00    +0.000 A 
ATOM     13  C   UNL     1      97.987   5.655  27.727  0.00  0.00    +0.000 A 
ATOM     14  C   UNL     1     101.047   7.503  27.082  0.00  0.00    +0.000 A 
ATOM     15  C   UNL     1     102.201   6.775  26.896  0.00  0.00    +0.000 A 
ATOM     16  C   UNL     1      95.724   4.809  28.183  0.00  0.00    +0.000 A 
ATOM     17  C   UNL     1      95.951   6.996  28.050  0.00  0.00    +0.000 A 
ATOM     18  C   UNL     1      94.524   5.452  28.379  0.00  0.00    +0.000 A 
ATOM     19  H   UNL     1     102.551   4.683  26.915  0.00  0.00    +0.000 HD
ENDBRANCH   3  10
BRANCH   2  20
ATOM     20  C   UNL     1      99.770   0.435  28.030  0.00  0.00    +0.000 C 
ATOM     21  C   UNL     1      99.615  -2.238  29.274  0.00  0.00    +0.000 C 
ATOM     22  C   UNL     1     100.504   0.126  29.337  0.00  0.00    +0.000 C 
ATOM     23  C   UNL     1      98.531  -0.448  27.859  0.00  0.00    +0.000 C 
ATOM     24  C   UNL     1     100.850  -1.356  29.445  0.00  0.00    +0.000 C 
ATOM     25  C   UNL     1      98.884  -1.929  27.970  0.00  0.00    +0.000 C 
BRANCH  21  26
ATOM     26  O   UNL     1     100.003  -3.608  29.266  0.00  0.00    +0.000 OA
BRANCH  26  27
ATOM     27  C   UNL     1      99.452  -4.311  30.370  0.00  0.00    +0.000 C 
BRANCH  27  28
ATOM     28  C   UNL     1      98.149  -4.960  29.944  0.00  0.00    +0.000 C 
BRANCH  28  29
ATOM     29  O   UNL     1      97.078  -4.369  30.671  0.00  0.00    +0.000 OA
ATOM     30  C   UNL     1      96.139  -3.749  29.803  0.00  0.00    +0.000 C 
ENDBRANCH  28  29
ENDBRANCH  27  28
ENDBRANCH  26  27
ENDBRANCH  21  26
ENDBRANCH   2  20
TORSDOF 6
