REMARK VINA RESULT:      -5.6      0.000      0.000
REMARK  Name = 168679856
REMARK  8 active torsions:
REMARK  status: ('A' for Active; 'I' for Inactive)
REMARK    1  A    between atoms: O_4  and  C_23
REMARK    2  A    between atoms: O_4  and  C_28
REMARK    3  A    between atoms: O_5  and  C_24
REMARK    4  A    between atoms: O_5  and  C_29
REMARK    5  A    between atoms: N_10  and  C_19
REMARK    6  A    between atoms: C_14  and  C_18
REMARK    7  A    between atoms: C_16  and  C_20
REMARK    8  A    between atoms: C_23  and  C_24
REMARK                            x       y       z     vdW  Elec       q    Type
REMARK                         _______ _______ _______ _____ _____    ______ ____
ROOT
ATOM      1  N   UNL     1      84.291   3.660  25.122  0.00  0.00    +0.000 N 
ATOM      2  N   UNL     1      84.906   1.784  23.891  0.00  0.00    +0.000 NA
ATOM      3  N   UNL     1      84.688   1.687  26.289  0.00  0.00    +0.000 NA
ATOM      4  N   UNL     1      83.692   5.641  25.927  0.00  0.00    +0.000 NA
ATOM      5  C   UNL     1      85.247   0.479  23.906  0.00  0.00    +0.000 A 
ATOM      6  C   UNL     1      84.644   2.316  25.100  0.00  0.00    +0.000 A 
ATOM      7  C   UNL     1      85.035   0.384  26.230  0.00  0.00    +0.000 A 
ATOM      8  C   UNL     1      85.328  -0.279  25.056  0.00  0.00    +0.000 A 
ATOM      9  C   UNL     1      84.186   4.487  24.040  0.00  0.00    +0.000 A 
ATOM     10  C   UNL     1      83.986   4.397  26.232  0.00  0.00    +0.000 A 
ATOM     11  C   UNL     1      83.815   5.704  24.561  0.00  0.00    +0.000 A 
ENDROOT
BRANCH   7  15
ATOM     12  F   UNL     1      84.317  -1.474  27.551  0.00  0.00    +0.000 F 
ATOM     13  F   UNL     1      86.357  -0.775  27.831  0.00  0.00    +0.000 F 
ATOM     14  F   UNL     1      84.689   0.389  28.599  0.00  0.00    +0.000 F 
ATOM     15  C   UNL     1      85.096  -0.353  27.527  0.00  0.00    +0.000 C 
ENDBRANCH   7  15
BRANCH   5  18
ATOM     16  O   UNL     1      84.873  -1.098  22.237  0.00  0.00    +0.000 OA
ATOM     17  N   UNL     1      86.557   0.497  21.840  0.00  0.00    +0.000 N 
ATOM     18  C   UNL     1      85.541  -0.129  22.582  0.00  0.00    +0.000 C 
ATOM     19  H   UNL     1      87.011   1.296  22.276  0.00  0.00    +0.000 HD
BRANCH  17  22
ATOM     20  N   UNL     1      88.806  -0.582  19.139  0.00  0.00    +0.000 NA
ATOM     21  N   UNL     1      86.640  -0.080  18.210  0.00  0.00    +0.000 NA
ATOM     22  C   UNL     1      87.024   0.166  20.573  0.00  0.00    +0.000 A 
ATOM     23  C   UNL     1      88.320  -0.253  20.355  0.00  0.00    +0.000 A 
ATOM     24  C   UNL     1      86.221   0.233  19.453  0.00  0.00    +0.000 A 
ATOM     25  C   UNL     1      87.925  -0.475  18.126  0.00  0.00    +0.000 A 
BRANCH  25  26
ATOM     26  O   UNL     1      88.386  -0.804  16.873  0.00  0.00    +0.000 OA
BRANCH  26  27
ATOM     27  C   UNL     1      89.077   0.216  16.164  0.00  0.00    +0.000 C 
BRANCH  27  28
ATOM     28  C   UNL     1      90.391  -0.343  15.651  0.00  0.00    +0.000 C 
BRANCH  28  29
ATOM     29  O   UNL     1      91.332  -0.369  16.716  0.00  0.00    +0.000 OA
ATOM     30  C   UNL     1      91.764  -1.693  16.996  0.00  0.00    +0.000 C 
ENDBRANCH  28  29
ENDBRANCH  27  28
ENDBRANCH  26  27
ENDBRANCH  25  26
ENDBRANCH  17  22
ENDBRANCH   5  18
TORSDOF 7
