REMARK VINA RESULT:      -5.3      2.852      3.987
REMARK  Name = 168679856
REMARK  8 active torsions:
REMARK  status: ('A' for Active; 'I' for Inactive)
REMARK    1  A    between atoms: O_4  and  C_23
REMARK    2  A    between atoms: O_4  and  C_28
REMARK    3  A    between atoms: O_5  and  C_24
REMARK    4  A    between atoms: O_5  and  C_29
REMARK    5  A    between atoms: N_10  and  C_19
REMARK    6  A    between atoms: C_14  and  C_18
REMARK    7  A    between atoms: C_16  and  C_20
REMARK    8  A    between atoms: C_23  and  C_24
REMARK                            x       y       z     vdW  Elec       q    Type
REMARK                         _______ _______ _______ _____ _____    ______ ____
ROOT
ATOM      1  N   UNL     1      83.800   1.888  28.411  0.00  0.00    +0.000 N 
ATOM      2  N   UNL     1      84.562   1.268  26.302  0.00  0.00    +0.000 NA
ATOM      3  N   UNL     1      83.855   3.526  26.761  0.00  0.00    +0.000 NA
ATOM      4  N   UNL     1      83.146   2.082  30.525  0.00  0.00    +0.000 NA
ATOM      5  C   UNL     1      84.827   1.647  25.035  0.00  0.00    +0.000 A 
ATOM      6  C   UNL     1      84.086   2.243  27.099  0.00  0.00    +0.000 A 
ATOM      7  C   UNL     1      84.142   3.836  25.478  0.00  0.00    +0.000 A 
ATOM      8  C   UNL     1      84.636   2.929  24.563  0.00  0.00    +0.000 A 
ATOM      9  C   UNL     1      83.956   0.649  28.967  0.00  0.00    +0.000 A 
ATOM     10  C   UNL     1      83.311   2.715  29.384  0.00  0.00    +0.000 A 
ATOM     11  C   UNL     1      83.546   0.794  30.271  0.00  0.00    +0.000 A 
ENDROOT
BRANCH   7  15
ATOM     12  F   UNL     1      84.765   6.139  25.633  0.00  0.00    +0.000 F 
ATOM     13  F   UNL     1      84.032   5.426  23.714  0.00  0.00    +0.000 F 
ATOM     14  F   UNL     1      82.655   5.708  25.371  0.00  0.00    +0.000 F 
ATOM     15  C   UNL     1      83.902   5.248  25.060  0.00  0.00    +0.000 C 
ENDBRANCH   7  15
BRANCH   5  18
ATOM     16  O   UNL     1      85.295  -0.575  24.531  0.00  0.00    +0.000 OA
ATOM     17  N   UNL     1      85.850   1.028  22.901  0.00  0.00    +0.000 N 
ATOM     18  C   UNL     1      85.353   0.585  24.138  0.00  0.00    +0.000 C 
ATOM     19  H   UNL     1      85.822   2.031  22.733  0.00  0.00    +0.000 HD
BRANCH  17  22
ATOM     20  N   UNL     1      88.092  -0.110  20.218  0.00  0.00    +0.000 NA
ATOM     21  N   UNL     1      86.241  -1.641  20.404  0.00  0.00    +0.000 NA
ATOM     22  C   UNL     1      86.377   0.266  21.864  0.00  0.00    +0.000 A 
ATOM     23  C   UNL     1      87.553   0.607  21.227  0.00  0.00    +0.000 A 
ATOM     24  C   UNL     1      85.759  -0.879  21.406  0.00  0.00    +0.000 A 
ATOM     25  C   UNL     1      87.395  -1.205  19.862  0.00  0.00    +0.000 A 
BRANCH  25  26
ATOM     26  O   UNL     1      87.916  -1.960  18.837  0.00  0.00    +0.000 OA
BRANCH  26  27
ATOM     27  C   UNL     1      87.557  -1.573  17.518  0.00  0.00    +0.000 C 
BRANCH  27  28
ATOM     28  C   UNL     1      88.818  -1.420  16.688  0.00  0.00    +0.000 C 
BRANCH  28  29
ATOM     29  O   UNL     1      89.421  -0.167  16.986  0.00  0.00    +0.000 OA
ATOM     30  C   UNL     1      90.812  -0.305  17.235  0.00  0.00    +0.000 C 
ENDBRANCH  28  29
ENDBRANCH  27  28
ENDBRANCH  26  27
ENDBRANCH  25  26
ENDBRANCH  17  22
ENDBRANCH   5  18
TORSDOF 7
