REMARK VINA RESULT:      -4.8      5.423      8.119
REMARK  Name = 118736856
REMARK  9 active torsions:
REMARK  status: ('A' for Active; 'I' for Inactive)
REMARK    1  A    between atoms: O_2  and  C_11
REMARK    2  A    between atoms: O_2  and  C_15
REMARK    3  A    between atoms: O_3  and  C_19
REMARK    4  A    between atoms: O_3  and  C_27
REMARK    5  A    between atoms: N_5  and  C_8
REMARK    6  A    between atoms: N_5  and  C_14
REMARK    7  A    between atoms: N_6  and  C_25
REMARK    8  A    between atoms: C_15  and  C_19
REMARK    9  A    between atoms: C_23  and  C_26
REMARK                            x       y       z     vdW  Elec       q    Type
REMARK                         _______ _______ _______ _____ _____    ______ ____
ROOT
ATOM      1  O   UNL     1      84.197   3.598  23.694  0.00  0.00    +0.000 OA
ATOM      2  N   UNL     1      83.959   4.042  25.969  0.00  0.00    +0.000 N 
ATOM      3  C   UNL     1      83.762   1.217  26.311  0.00  0.00    +0.000 A 
ATOM      4  C   UNL     1      83.677   2.122  27.481  0.00  0.00    +0.000 A 
ATOM      5  C   UNL     1      83.933   1.758  25.096  0.00  0.00    +0.000 A 
ATOM      6  C   UNL     1      83.777   3.518  27.290  0.00  0.00    +0.000 A 
ATOM      7  C   UNL     1      83.498   1.636  28.791  0.00  0.00    +0.000 A 
ATOM      8  C   UNL     1      84.042   3.215  24.854  0.00  0.00    +0.000 A 
ATOM      9  C   UNL     1      83.696   4.374  28.407  0.00  0.00    +0.000 A 
ATOM     10  C   UNL     1      83.419   2.499  29.885  0.00  0.00    +0.000 A 
ATOM     11  C   UNL     1      83.519   3.868  29.692  0.00  0.00    +0.000 A 
ATOM     12  C   UNL     1      84.061   5.489  25.788  0.00  0.00    +0.000 C 
ENDROOT
BRANCH  10  15
ATOM     13  S   UNL     1      84.342   2.379  32.460  0.00  0.00    +0.000 S 
ATOM     14  N   UNL     1      82.380   0.805  33.054  0.00  0.00    +0.000 NA
ATOM     15  C   UNL     1      83.237   1.969  31.214  0.00  0.00    +0.000 A 
ATOM     16  C   UNL     1      82.265   1.129  31.716  0.00  0.00    +0.000 A 
ATOM     17  C   UNL     1      83.438   1.406  33.548  0.00  0.00    +0.000 A 
ENDBRANCH  10  15
BRANCH   3  18
ATOM     18  N   UNL     1      83.668  -0.138  26.480  0.00  0.00    +0.000 N 
ATOM     19  H   UNL     1      82.755  -0.552  26.614  0.00  0.00    +0.000 HD
BRANCH  18  20
ATOM     20  C   UNL     1      84.786  -1.039  26.300  0.00  0.00    +0.000 C 
ATOM     21  C   UNL     1      85.738  -0.916  27.492  0.00  0.00    +0.000 C 
ATOM     22  C   UNL     1      84.267  -2.470  26.142  0.00  0.00    +0.000 C 
ATOM     23  C   UNL     1      86.365  -3.350  27.241  0.00  0.00    +0.000 C 
ATOM     24  C   UNL     1      86.882  -1.921  27.397  0.00  0.00    +0.000 C 
ATOM     25  C   UNL     1      85.413  -3.473  26.052  0.00  0.00    +0.000 C 
BRANCH  23  26
ATOM     26  O   UNL     1      87.479  -4.217  27.054  0.00  0.00    +0.000 OA
BRANCH  26  27
ATOM     27  C   UNL     1      87.955  -4.725  28.293  0.00  0.00    +0.000 C 
BRANCH  27  28
ATOM     28  C   UNL     1      86.780  -4.915  29.233  0.00  0.00    +0.000 C 
BRANCH  28  29
ATOM     29  O   UNL     1      87.115  -4.383  30.508  0.00  0.00    +0.000 OA
ATOM     30  C   UNL     1      88.515  -4.186  30.640  0.00  0.00    +0.000 C 
ENDBRANCH  28  29
ENDBRANCH  27  28
ENDBRANCH  26  27
ENDBRANCH  23  26
ENDBRANCH  18  20
ENDBRANCH   3  18
TORSDOF 7
