REMARK VINA RESULT:      -4.6      2.060      2.587
REMARK  Name = 441667
REMARK  12 active torsions:
REMARK  status: ('A' for Active; 'I' for Inactive)
REMARK    1  A    between atoms: O_2  and  C_16
REMARK    2  A    between atoms: O_2  and  C_18
REMARK    3  A    between atoms: O_3  and  C_12
REMARK    4  A    between atoms: O_4  and  C_13
REMARK    5  A    between atoms: O_5  and  C_14
REMARK    6  A    between atoms: O_6  and  C_17
REMARK    7  A    between atoms: O_8  and  C_24
REMARK    8  A    between atoms: O_9  and  C_29
REMARK    9  A    between atoms: O_10  and  C_30
REMARK   10  A    between atoms: O_11  and  C_32
REMARK   11  A    between atoms: C_15  and  C_17
REMARK   12  A    between atoms: C_19  and  C_23
REMARK                            x       y       z     vdW  Elec       q    Type
REMARK                         _______ _______ _______ _____ _____    ______ ____
ROOT
ATOM      1  O   UNL     1      83.562   2.910  28.977  0.00  0.00    +0.000 OA
ATOM      2  C   UNL     1      83.724   0.495  28.454  0.00  0.00    +0.000 A 
ATOM      3  C   UNL     1      83.558   1.667  29.370  0.00  0.00    +0.000 A 
ATOM      4  C   UNL     1      83.934   0.769  27.159  0.00  0.00    +0.000 A 
ATOM      5  C   UNL     1      83.982   2.150  26.690  0.00  0.00    +0.000 A 
ATOM      6  C   UNL     1      83.782   3.179  27.614  0.00  0.00    +0.000 A 
ATOM      7  C   UNL     1      84.207   2.460  25.345  0.00  0.00    +0.000 A 
ATOM      8  C   UNL     1      83.806   4.512  27.198  0.00  0.00    +0.000 A 
ATOM      9  C   UNL     1      84.231   3.793  24.931  0.00  0.00    +0.000 A 
ATOM     10  C   UNL     1      84.031   4.818  25.857  0.00  0.00    +0.000 A 
ENDROOT
BRANCH   3  11
ATOM     11  C   UNL     1      83.350   1.385  30.810  0.00  0.00    +0.000 A 
ATOM     12  C   UNL     1      84.421   1.478  31.691  0.00  0.00    +0.000 A 
ATOM     13  C   UNL     1      82.085   1.031  31.265  0.00  0.00    +0.000 A 
ATOM     14  C   UNL     1      84.224   1.212  33.047  0.00  0.00    +0.000 A 
ATOM     15  C   UNL     1      81.889   0.766  32.620  0.00  0.00    +0.000 A 
ATOM     16  C   UNL     1      82.958   0.856  33.511  0.00  0.00    +0.000 A 
BRANCH  14  17
ATOM     17  O   UNL     1      85.277   1.304  33.906  0.00  0.00    +0.000 OA
ATOM     18  H   UNL     1      85.469   0.414  34.250  0.00  0.00    +0.000 HD
ENDBRANCH  14  17
BRANCH  16  19
ATOM     19  O   UNL     1      82.754   0.594  34.832  0.00  0.00    +0.000 OA
ATOM     20  H   UNL     1      83.606   0.375  35.247  0.00  0.00    +0.000 HD
ENDBRANCH  16  19
ENDBRANCH   3  11
BRANCH   7  21
ATOM     21  O   UNL     1      84.403   1.488  24.409  0.00  0.00    +0.000 OA
ATOM     22  H   UNL     1      85.351   1.331  24.278  0.00  0.00    +0.000 HD
ENDBRANCH   7  21
BRANCH  10  23
ATOM     23  O   UNL     1      84.054   6.116  25.450  0.00  0.00    +0.000 OA
ATOM     24  H   UNL     1      84.027   6.143  24.478  0.00  0.00    +0.000 HD
ENDBRANCH  10  23
BRANCH   2  25
ATOM     25  O   UNL     1      83.607  -0.788  28.937  0.00  0.00    +0.000 OA
BRANCH  25  31
ATOM     26  O   UNL     1      84.377  -2.434  27.473  0.00  0.00    +0.000 OA
ATOM     27  C   UNL     1      86.225  -3.432  29.433  0.00  0.00    +0.000 C 
ATOM     28  C   UNL     1      85.884  -4.205  28.159  0.00  0.00    +0.000 C 
ATOM     29  C   UNL     1      85.125  -2.430  29.783  0.00  0.00    +0.000 C 
ATOM     30  C   UNL     1      85.468  -3.249  27.039  0.00  0.00    +0.000 C 
ATOM     31  C   UNL     1      84.728  -1.592  28.569  0.00  0.00    +0.000 C 
BRANCH  27  32
ATOM     32  O   UNL     1      86.368  -4.374  30.497  0.00  0.00    +0.000 OA
ATOM     33  H   UNL     1      87.255  -4.264  30.882  0.00  0.00    +0.000 HD
ENDBRANCH  27  32
BRANCH  28  34
ATOM     34  O   UNL     1      87.023  -4.953  27.741  0.00  0.00    +0.000 OA
ATOM     35  H   UNL     1      87.816  -4.495  28.066  0.00  0.00    +0.000 HD
ENDBRANCH  28  34
BRANCH  29  36
ATOM     36  O   UNL     1      85.595  -1.547  30.802  0.00  0.00    +0.000 OA
ATOM     37  H   UNL     1      85.239  -1.864  31.650  0.00  0.00    +0.000 HD
ENDBRANCH  29  36
BRANCH  30  38
ATOM     38  C   UNL     1      85.011  -4.003  25.794  0.00  0.00    +0.000 C 
BRANCH  38  39
ATOM     39  O   UNL     1      86.154  -4.367  25.042  0.00  0.00    +0.000 OA
ATOM     40  H   UNL     1      86.114  -3.890  24.194  0.00  0.00    +0.000 HD
ENDBRANCH  38  39
ENDBRANCH  30  38
ENDBRANCH  25  31
ENDBRANCH   2  25
TORSDOF 12
