REMARK VINA RESULT:      -5.0      2.542      5.658
REMARK  Name = 441667
REMARK  12 active torsions:
REMARK  status: ('A' for Active; 'I' for Inactive)
REMARK    1  A    between atoms: O_2  and  C_16
REMARK    2  A    between atoms: O_2  and  C_18
REMARK    3  A    between atoms: O_3  and  C_12
REMARK    4  A    between atoms: O_4  and  C_13
REMARK    5  A    between atoms: O_5  and  C_14
REMARK    6  A    between atoms: O_6  and  C_17
REMARK    7  A    between atoms: O_8  and  C_24
REMARK    8  A    between atoms: O_9  and  C_29
REMARK    9  A    between atoms: O_10  and  C_30
REMARK   10  A    between atoms: O_11  and  C_32
REMARK   11  A    between atoms: C_15  and  C_17
REMARK   12  A    between atoms: C_19  and  C_23
REMARK                            x       y       z     vdW  Elec       q    Type
REMARK                         _______ _______ _______ _____ _____    ______ ____
ROOT
ATOM      1  O   UNL     1      84.027   1.549  23.634  0.00  0.00    +0.000 OA
ATOM      2  C   UNL     1      83.233   1.185  25.951  0.00  0.00    +0.000 A 
ATOM      3  C   UNL     1      83.537   2.019  24.746  0.00  0.00    +0.000 A 
ATOM      4  C   UNL     1      83.537  -0.117  25.872  0.00  0.00    +0.000 A 
ATOM      5  C   UNL     1      84.123  -0.672  24.657  0.00  0.00    +0.000 A 
ATOM      6  C   UNL     1      84.339   0.178  23.568  0.00  0.00    +0.000 A 
ATOM      7  C   UNL     1      84.454  -2.026  24.553  0.00  0.00    +0.000 A 
ATOM      8  C   UNL     1      84.883  -0.320  22.384  0.00  0.00    +0.000 A 
ATOM      9  C   UNL     1      84.999  -2.523  23.367  0.00  0.00    +0.000 A 
ATOM     10  C   UNL     1      85.213  -1.671  22.284  0.00  0.00    +0.000 A 
ENDROOT
BRANCH   3  11
ATOM     11  C   UNL     1      83.231   3.468  24.824  0.00  0.00    +0.000 A 
ATOM     12  C   UNL     1      84.220   4.359  25.224  0.00  0.00    +0.000 A 
ATOM     13  C   UNL     1      81.958   3.920  24.494  0.00  0.00    +0.000 A 
ATOM     14  C   UNL     1      83.931   5.722  25.296  0.00  0.00    +0.000 A 
ATOM     15  C   UNL     1      81.671   5.283  24.566  0.00  0.00    +0.000 A 
ATOM     16  C   UNL     1      82.657   6.184  24.967  0.00  0.00    +0.000 A 
BRANCH  14  17
ATOM     17  O   UNL     1      84.903   6.592  25.690  0.00  0.00    +0.000 OA
ATOM     18  H   UNL     1      84.565   7.498  25.579  0.00  0.00    +0.000 HD
ENDBRANCH  14  17
BRANCH  16  19
ATOM     19  O   UNL     1      82.363   7.512  25.034  0.00  0.00    +0.000 OA
ATOM     20  H   UNL     1      82.385   7.888  24.138  0.00  0.00    +0.000 HD
ENDBRANCH  16  19
ENDBRANCH   3  11
BRANCH   7  21
ATOM     21  O   UNL     1      84.257  -2.892  25.588  0.00  0.00    +0.000 OA
ATOM     22  H   UNL     1      83.388  -3.316  25.514  0.00  0.00    +0.000 HD
ENDBRANCH   7  21
BRANCH  10  23
ATOM     23  O   UNL     1      85.744  -2.158  21.129  0.00  0.00    +0.000 OA
ATOM     24  H   UNL     1      85.974  -1.413  20.549  0.00  0.00    +0.000 HD
ENDBRANCH  10  23
BRANCH   2  25
ATOM     25  O   UNL     1      82.623   1.745  27.050  0.00  0.00    +0.000 OA
BRANCH  25  31
ATOM     26  O   UNL     1      83.400   0.492  28.858  0.00  0.00    +0.000 OA
ATOM     27  C   UNL     1      83.824   2.861  30.427  0.00  0.00    +0.000 C 
ATOM     28  C   UNL     1      83.843   1.459  31.037  0.00  0.00    +0.000 C 
ATOM     29  C   UNL     1      83.045   2.880  29.111  0.00  0.00    +0.000 C 
ATOM     30  C   UNL     1      84.262   0.419  29.996  0.00  0.00    +0.000 C 
ATOM     31  C   UNL     1      83.486   1.747  28.187  0.00  0.00    +0.000 C 
BRANCH  27  32
ATOM     32  O   UNL     1      83.199   3.741  31.363  0.00  0.00    +0.000 OA
ATOM     33  H   UNL     1      83.550   3.540  32.248  0.00  0.00    +0.000 HD
ENDBRANCH  27  32
BRANCH  28  34
ATOM     34  O   UNL     1      84.761   1.431  32.127  0.00  0.00    +0.000 OA
ATOM     35  H   UNL     1      85.462   0.795  31.910  0.00  0.00    +0.000 HD
ENDBRANCH  28  34
BRANCH  29  36
ATOM     36  O   UNL     1      83.279   4.120  28.442  0.00  0.00    +0.000 OA
ATOM     37  H   UNL     1      82.854   4.064  27.569  0.00  0.00    +0.000 HD
ENDBRANCH  29  36
BRANCH  30  38
ATOM     38  C   UNL     1      84.176  -1.001  30.548  0.00  0.00    +0.000 C 
BRANCH  38  39
ATOM     39  O   UNL     1      85.449  -1.366  31.050  0.00  0.00    +0.000 OA
ATOM     40  H   UNL     1      85.321  -1.728  31.944  0.00  0.00    +0.000 HD
ENDBRANCH  38  39
ENDBRANCH  30  38
ENDBRANCH  25  31
ENDBRANCH   2  25
TORSDOF 12
