MODEL 1
REMARK VINA RESULT:      -6.3      0.000      0.000
REMARK  Name = 5280443
REMARK  4 active torsions:
REMARK  status: ('A' for Active; 'I' for Inactive)
REMARK    1  A    between atoms: O_2  and  C_12
REMARK    2  A    between atoms: O_4  and  C_14
REMARK    3  A    between atoms: O_5  and  C_20
REMARK    4  A    between atoms: C_8  and  C_9
REMARK                            x       y       z     vdW  Elec       q    Type
REMARK                         _______ _______ _______ _____ _____    ______ ____
ROOT
ATOM      1  O   UNL     1      90.382  -1.947  23.031  0.00  0.00    +0.000 OA
ATOM      2  O   UNL     1      88.692   0.084  26.131  0.00  0.00    +0.000 OA
ATOM      3  C   UNL     1      90.067  -1.704  25.427  0.00  0.00    +0.000 A 
ATOM      4  C   UNL     1      90.613  -2.352  24.321  0.00  0.00    +0.000 A 
ATOM      5  C   UNL     1      89.560  -0.850  22.820  0.00  0.00    +0.000 A 
ATOM      6  C   UNL     1      89.203  -0.533  25.208  0.00  0.00    +0.000 A 
ATOM      7  C   UNL     1      88.982  -0.139  23.802  0.00  0.00    +0.000 A 
ATOM      8  C   UNL     1      90.338  -2.160  26.718  0.00  0.00    +0.000 A 
ATOM      9  C   UNL     1      91.438  -3.463  24.501  0.00  0.00    +0.000 A 
ATOM     10  C   UNL     1      91.711  -3.922  25.789  0.00  0.00    +0.000 A 
ATOM     11  C   UNL     1      91.162  -3.272  26.896  0.00  0.00    +0.000 A 
ENDROOT
BRANCH   5  12
ATOM     12  C   UNL     1      89.383  -0.497  21.398  0.00  0.00    +0.000 A 
ATOM     13  C   UNL     1      88.103  -0.466  20.837  0.00  0.00    +0.000 A 
ATOM     14  C   UNL     1      90.493  -0.193  20.606  0.00  0.00    +0.000 A 
ATOM     15  C   UNL     1      87.936  -0.131  19.493  0.00  0.00    +0.000 A 
ATOM     16  C   UNL     1      90.325   0.140  19.263  0.00  0.00    +0.000 A 
ATOM     17  C   UNL     1      89.046   0.171  18.705  0.00  0.00    +0.000 A 
BRANCH  17  18
ATOM     18  O   UNL     1      88.883   0.497  17.395  0.00  0.00    +0.000 OA
ATOM     19  H   UNL     1      89.713   0.316  16.919  0.00  0.00    +0.000 HD
ENDBRANCH  17  18
ENDBRANCH   5  12
BRANCH   8  20
ATOM     20  O   UNL     1      89.828  -1.561  27.831  0.00  0.00    +0.000 OA
ATOM     21  H   UNL     1      90.515  -1.049  28.286  0.00  0.00    +0.000 HD
ENDBRANCH   8  20
BRANCH  10  22
ATOM     22  O   UNL     1      92.515  -5.006  25.968  0.00  0.00    +0.000 OA
ATOM     23  H   UNL     1      91.965  -5.772  26.207  0.00  0.00    +0.000 HD
ENDBRANCH  10  22
TORSDOF 4
ENDMDL
MODEL 2
REMARK VINA RESULT:      -6.3      2.201      6.900
REMARK  Name = 5280443
REMARK  4 active torsions:
REMARK  status: ('A' for Active; 'I' for Inactive)
REMARK    1  A    between atoms: O_2  and  C_12
REMARK    2  A    between atoms: O_4  and  C_14
REMARK    3  A    between atoms: O_5  and  C_20
REMARK    4  A    between atoms: C_8  and  C_9
REMARK                            x       y       z     vdW  Elec       q    Type
REMARK                         _______ _______ _______ _____ _____    ______ ____
ROOT
ATOM      1  O   UNL     1      89.015  -0.098  24.279  0.00  0.00    +0.000 OA
ATOM      2  O   UNL     1      92.144  -2.631  23.653  0.00  0.00    +0.000 OA
ATOM      3  C   UNL     1      90.565  -1.138  22.724  0.00  0.00    +0.000 A 
ATOM      4  C   UNL     1      89.500  -0.287  23.009  0.00  0.00    +0.000 A 
ATOM      5  C   UNL     1      89.609  -0.793  25.322  0.00  0.00    +0.000 A 
ATOM      6  C   UNL     1      91.204  -1.870  23.829  0.00  0.00    +0.000 A 
ATOM      7  C   UNL     1      90.645  -1.635  25.176  0.00  0.00    +0.000 A 
ATOM      8  C   UNL     1      91.016  -1.290  21.412  0.00  0.00    +0.000 A 
ATOM      9  C   UNL     1      88.877   0.420  21.980  0.00  0.00    +0.000 A 
ATOM     10  C   UNL     1      89.325   0.272  20.667  0.00  0.00    +0.000 A 
ATOM     11  C   UNL     1      90.393  -0.583  20.383  0.00  0.00    +0.000 A 
ENDROOT
BRANCH   5  12
ATOM     12  C   UNL     1      89.015  -0.513  26.644  0.00  0.00    +0.000 A 
ATOM     13  C   UNL     1      89.830  -0.123  27.711  0.00  0.00    +0.000 A 
ATOM     14  C   UNL     1      87.637  -0.635  26.835  0.00  0.00    +0.000 A 
ATOM     15  C   UNL     1      89.269   0.143  28.960  0.00  0.00    +0.000 A 
ATOM     16  C   UNL     1      87.077  -0.369  28.084  0.00  0.00    +0.000 A 
ATOM     17  C   UNL     1      87.892   0.019  29.147  0.00  0.00    +0.000 A 
BRANCH  17  18
ATOM     18  O   UNL     1      87.345   0.279  30.365  0.00  0.00    +0.000 OA
ATOM     19  H   UNL     1      86.997  -0.550  30.737  0.00  0.00    +0.000 HD
ENDBRANCH  17  18
ENDBRANCH   5  12
BRANCH   8  20
ATOM     20  O   UNL     1      92.054  -2.109  21.082  0.00  0.00    +0.000 OA
ATOM     21  H   UNL     1      91.804  -3.039  21.200  0.00  0.00    +0.000 HD
ENDBRANCH   8  20
BRANCH  10  22
ATOM     22  O   UNL     1      88.720   0.960  19.660  0.00  0.00    +0.000 OA
ATOM     23  H   UNL     1      89.297   0.946  18.877  0.00  0.00    +0.000 HD
ENDBRANCH  10  22
TORSDOF 4
ENDMDL
MODEL 3
REMARK VINA RESULT:      -6.0      2.538      6.283
REMARK  Name = 5280443
REMARK  4 active torsions:
REMARK  status: ('A' for Active; 'I' for Inactive)
REMARK    1  A    between atoms: O_2  and  C_12
REMARK    2  A    between atoms: O_4  and  C_14
REMARK    3  A    between atoms: O_5  and  C_20
REMARK    4  A    between atoms: C_8  and  C_9
REMARK                            x       y       z     vdW  Elec       q    Type
REMARK                         _______ _______ _______ _____ _____    ______ ____
ROOT
ATOM      1  O   UNL     1      90.296  -1.404  25.146  0.00  0.00    +0.000 OA
ATOM      2  O   UNL     1      88.735   0.521  21.912  0.00  0.00    +0.000 OA
ATOM      3  C   UNL     1      90.336  -1.002  22.751  0.00  0.00    +0.000 A 
ATOM      4  C   UNL     1      90.821  -1.627  23.897  0.00  0.00    +0.000 A 
ATOM      5  C   UNL     1      89.244  -0.510  25.269  0.00  0.00    +0.000 A 
ATOM      6  C   UNL     1      89.212  -0.061  22.876  0.00  0.00    +0.000 A 
ATOM      7  C   UNL     1      88.686   0.148  24.240  0.00  0.00    +0.000 A 
ATOM      8  C   UNL     1      90.908  -1.269  21.505  0.00  0.00    +0.000 A 
ATOM      9  C   UNL     1      91.883  -2.526  23.806  0.00  0.00    +0.000 A 
ATOM     10  C   UNL     1      92.459  -2.796  22.564  0.00  0.00    +0.000 A 
ATOM     11  C   UNL     1      91.972  -2.168  21.415  0.00  0.00    +0.000 A 
ENDROOT
BRANCH   5  12
ATOM     12  C   UNL     1      88.754  -0.348  26.652  0.00  0.00    +0.000 A 
ATOM     13  C   UNL     1      89.647  -0.039  27.682  0.00  0.00    +0.000 A 
ATOM     14  C   UNL     1      87.395  -0.503  26.939  0.00  0.00    +0.000 A 
ATOM     15  C   UNL     1      89.184   0.115  28.988  0.00  0.00    +0.000 A 
ATOM     16  C   UNL     1      86.933  -0.350  28.245  0.00  0.00    +0.000 A 
ATOM     17  C   UNL     1      87.827  -0.041  29.271  0.00  0.00    +0.000 A 
BRANCH  17  18
ATOM     18  O   UNL     1      87.375   0.109  30.545  0.00  0.00    +0.000 OA
ATOM     19  H   UNL     1      86.573  -0.430  30.660  0.00  0.00    +0.000 HD
ENDBRANCH  17  18
ENDBRANCH   5  12
BRANCH   8  20
ATOM     20  O   UNL     1      90.470  -0.685  20.355  0.00  0.00    +0.000 OA
ATOM     21  H   UNL     1      90.840   0.207  20.265  0.00  0.00    +0.000 HD
ENDBRANCH   8  20
BRANCH  10  22
ATOM     22  O   UNL     1      93.496  -3.673  22.470  0.00  0.00    +0.000 OA
ATOM     23  H   UNL     1      93.150  -4.579  22.537  0.00  0.00    +0.000 HD
ENDBRANCH  10  22
TORSDOF 4
ENDMDL
MODEL 4
REMARK VINA RESULT:      -5.8      3.464      5.323
REMARK  Name = 5280443
REMARK  4 active torsions:
REMARK  status: ('A' for Active; 'I' for Inactive)
REMARK    1  A    between atoms: O_2  and  C_12
REMARK    2  A    between atoms: O_4  and  C_14
REMARK    3  A    between atoms: O_5  and  C_20
REMARK    4  A    between atoms: C_8  and  C_9
REMARK                            x       y       z     vdW  Elec       q    Type
REMARK                         _______ _______ _______ _____ _____    ______ ____
ROOT
ATOM      1  O   UNL     1      88.980  -0.132  27.321  0.00  0.00    +0.000 OA
ATOM      2  O   UNL     1      85.032  -1.126  27.180  0.00  0.00    +0.000 OA
ATOM      3  C   UNL     1      86.860  -0.385  28.481  0.00  0.00    +0.000 A 
ATOM      4  C   UNL     1      88.214  -0.059  28.458  0.00  0.00    +0.000 A 
ATOM      5  C   UNL     1      88.378  -0.557  26.147  0.00  0.00    +0.000 A 
ATOM      6  C   UNL     1      86.215  -0.827  27.234  0.00  0.00    +0.000 A 
ATOM      7  C   UNL     1      87.082  -0.891  26.039  0.00  0.00    +0.000 A 
ATOM      8  C   UNL     1      86.131  -0.291  29.668  0.00  0.00    +0.000 A 
ATOM      9  C   UNL     1      88.849   0.365  29.626  0.00  0.00    +0.000 A 
ATOM     10  C   UNL     1      88.124   0.460  30.814  0.00  0.00    +0.000 A 
ATOM     11  C   UNL     1      86.767   0.132  30.835  0.00  0.00    +0.000 A 
ENDROOT
BRANCH   5  12
ATOM     12  C   UNL     1      89.288  -0.593  24.985  0.00  0.00    +0.000 A 
ATOM     13  C   UNL     1      90.634  -0.929  25.159  0.00  0.00    +0.000 A 
ATOM     14  C   UNL     1      88.810  -0.293  23.708  0.00  0.00    +0.000 A 
ATOM     15  C   UNL     1      91.494  -0.964  24.062  0.00  0.00    +0.000 A 
ATOM     16  C   UNL     1      89.671  -0.328  22.611  0.00  0.00    +0.000 A 
ATOM     17  C   UNL     1      91.013  -0.663  22.788  0.00  0.00    +0.000 A 
BRANCH  17  18
ATOM     18  O   UNL     1      91.852  -0.698  21.718  0.00  0.00    +0.000 OA
ATOM     19  H   UNL     1      91.614   0.022  21.107  0.00  0.00    +0.000 HD
ENDBRANCH  17  18
ENDBRANCH   5  12
BRANCH   8  20
ATOM     20  O   UNL     1      84.805  -0.598  29.741  0.00  0.00    +0.000 OA
ATOM     21  H   UNL     1      84.452  -0.370  30.615  0.00  0.00    +0.000 HD
ENDBRANCH   8  20
BRANCH  10  22
ATOM     22  O   UNL     1      88.741   0.874  31.955  0.00  0.00    +0.000 OA
ATOM     23  H   UNL     1      88.227   1.601  32.346  0.00  0.00    +0.000 HD
ENDBRANCH  10  22
TORSDOF 4
ENDMDL
MODEL 5
REMARK VINA RESULT:      -5.7      1.756      3.537
REMARK  Name = 5280443
REMARK  4 active torsions:
REMARK  status: ('A' for Active; 'I' for Inactive)
REMARK    1  A    between atoms: O_2  and  C_12
REMARK    2  A    between atoms: O_4  and  C_14
REMARK    3  A    between atoms: O_5  and  C_20
REMARK    4  A    between atoms: C_8  and  C_9
REMARK                            x       y       z     vdW  Elec       q    Type
REMARK                         _______ _______ _______ _____ _____    ______ ____
ROOT
ATOM      1  O   UNL     1      88.849  -0.275  21.633  0.00  0.00    +0.000 OA
ATOM      2  O   UNL     1      92.119  -2.623  22.253  0.00  0.00    +0.000 OA
ATOM      3  C   UNL     1      90.388  -1.319  23.195  0.00  0.00    +0.000 A 
ATOM      4  C   UNL     1      89.278  -0.526  22.912  0.00  0.00    +0.000 A 
ATOM      5  C   UNL     1      89.558  -0.828  20.578  0.00  0.00    +0.000 A 
ATOM      6  C   UNL     1      91.138  -1.916  22.079  0.00  0.00    +0.000 A 
ATOM      7  C   UNL     1      90.638  -1.613  20.722  0.00  0.00    +0.000 A 
ATOM      8  C   UNL     1      90.779  -1.542  24.517  0.00  0.00    +0.000 A 
ATOM      9  C   UNL     1      88.549   0.050  23.953  0.00  0.00    +0.000 A 
ATOM     10  C   UNL     1      88.935  -0.170  25.275  0.00  0.00    +0.000 A 
ATOM     11  C   UNL     1      90.049  -0.964  25.557  0.00  0.00    +0.000 A 
ENDROOT
BRANCH   5  12
ATOM     12  C   UNL     1      89.008  -0.499  19.248  0.00  0.00    +0.000 A 
ATOM     13  C   UNL     1      88.398   0.739  19.028  0.00  0.00    +0.000 A 
ATOM     14  C   UNL     1      89.097  -1.422  18.204  0.00  0.00    +0.000 A 
ATOM     15  C   UNL     1      87.879   1.051  17.772  0.00  0.00    +0.000 A 
ATOM     16  C   UNL     1      88.577  -1.110  16.948  0.00  0.00    +0.000 A 
ATOM     17  C   UNL     1      87.968   0.126  16.731  0.00  0.00    +0.000 A 
BRANCH  17  18
ATOM     18  O   UNL     1      87.463   0.430  15.505  0.00  0.00    +0.000 OA
ATOM     19  H   UNL     1      87.919  -0.108  14.834  0.00  0.00    +0.000 HD
ENDBRANCH  17  18
ENDBRANCH   5  12
BRANCH   8  20
ATOM     20  O   UNL     1      91.856  -2.309  24.846  0.00  0.00    +0.000 OA
ATOM     21  H   UNL     1      91.914  -2.419  25.807  0.00  0.00    +0.000 HD
ENDBRANCH   8  20
BRANCH  10  22
ATOM     22  O   UNL     1      88.226   0.391  26.293  0.00  0.00    +0.000 OA
ATOM     23  H   UNL     1      87.331   0.603  25.975  0.00  0.00    +0.000 HD
ENDBRANCH  10  22
TORSDOF 4
ENDMDL
MODEL 6
REMARK VINA RESULT:      -5.7      2.848      4.438
REMARK  Name = 5280443
REMARK  4 active torsions:
REMARK  status: ('A' for Active; 'I' for Inactive)
REMARK    1  A    between atoms: O_2  and  C_12
REMARK    2  A    between atoms: O_4  and  C_14
REMARK    3  A    between atoms: O_5  and  C_20
REMARK    4  A    between atoms: C_8  and  C_9
REMARK                            x       y       z     vdW  Elec       q    Type
REMARK                         _______ _______ _______ _____ _____    ______ ____
ROOT
ATOM      1  O   UNL     1      87.702  -0.711  25.261  0.00  0.00    +0.000 OA
ATOM      2  O   UNL     1      90.036  -0.153  28.553  0.00  0.00    +0.000 OA
ATOM      3  C   UNL     1      87.888  -0.610  27.681  0.00  0.00    +0.000 A 
ATOM      4  C   UNL     1      87.148  -0.791  26.514  0.00  0.00    +0.000 A 
ATOM      5  C   UNL     1      89.055  -0.428  25.154  0.00  0.00    +0.000 A 
ATOM      6  C   UNL     1      89.326  -0.320  27.572  0.00  0.00    +0.000 A 
ATOM      7  C   UNL     1      89.874  -0.242  26.202  0.00  0.00    +0.000 A 
ATOM      8  C   UNL     1      87.271  -0.704  28.930  0.00  0.00    +0.000 A 
ATOM      9  C   UNL     1      85.783  -1.068  26.590  0.00  0.00    +0.000 A 
ATOM     10  C   UNL     1      85.162  -1.163  27.835  0.00  0.00    +0.000 A 
ATOM     11  C   UNL     1      85.905  -0.981  29.004  0.00  0.00    +0.000 A 
ENDROOT
BRANCH   5  12
ATOM     12  C   UNL     1      89.548  -0.371  23.764  0.00  0.00    +0.000 A 
ATOM     13  C   UNL     1      90.871  -0.716  23.473  0.00  0.00    +0.000 A 
ATOM     14  C   UNL     1      88.694   0.028  22.733  0.00  0.00    +0.000 A 
ATOM     15  C   UNL     1      91.335  -0.663  22.159  0.00  0.00    +0.000 A 
ATOM     16  C   UNL     1      89.160   0.081  21.419  0.00  0.00    +0.000 A 
ATOM     17  C   UNL     1      90.481  -0.264  21.132  0.00  0.00    +0.000 A 
BRANCH  17  18
ATOM     18  O   UNL     1      90.934  -0.212  19.850  0.00  0.00    +0.000 OA
ATOM     19  H   UNL     1      91.641   0.454  19.793  0.00  0.00    +0.000 HD
ENDBRANCH  17  18
ENDBRANCH   5  12
BRANCH   8  20
ATOM     20  O   UNL     1      87.950  -0.536  30.099  0.00  0.00    +0.000 OA
ATOM     21  H   UNL     1      87.889   0.385  30.398  0.00  0.00    +0.000 HD
ENDBRANCH   8  20
BRANCH  10  22
ATOM     22  O   UNL     1      83.830  -1.434  27.913  0.00  0.00    +0.000 OA
ATOM     23  H   UNL     1      83.439  -0.896  28.623  0.00  0.00    +0.000 HD
ENDBRANCH  10  22
TORSDOF 4
ENDMDL
MODEL 7
REMARK VINA RESULT:      -5.5      3.107      4.860
REMARK  Name = 5280443
REMARK  4 active torsions:
REMARK  status: ('A' for Active; 'I' for Inactive)
REMARK    1  A    between atoms: O_2  and  C_12
REMARK    2  A    between atoms: O_4  and  C_14
REMARK    3  A    between atoms: O_5  and  C_20
REMARK    4  A    between atoms: C_8  and  C_9
REMARK                            x       y       z     vdW  Elec       q    Type
REMARK                         _______ _______ _______ _____ _____    ______ ____
ROOT
ATOM      1  O   UNL     1      88.575  -1.569  24.965  0.00  0.00    +0.000 OA
ATOM      2  O   UNL     1      89.782   0.098  28.481  0.00  0.00    +0.000 OA
ATOM      3  C   UNL     1      87.987  -0.628  27.126  0.00  0.00    +0.000 A 
ATOM      4  C   UNL     1      87.644  -1.203  25.905  0.00  0.00    +0.000 A 
ATOM      5  C   UNL     1      89.915  -1.346  25.243  0.00  0.00    +0.000 A 
ATOM      6  C   UNL     1      89.409  -0.400  27.429  0.00  0.00    +0.000 A 
ATOM      7  C   UNL     1      90.371  -0.807  26.385  0.00  0.00    +0.000 A 
ATOM      8  C   UNL     1      86.996  -0.277  28.045  0.00  0.00    +0.000 A 
ATOM      9  C   UNL     1      86.304  -1.433  25.594  0.00  0.00    +0.000 A 
ATOM     10  C   UNL     1      85.310  -1.084  26.509  0.00  0.00    +0.000 A 
ATOM     11  C   UNL     1      85.656  -0.506  27.733  0.00  0.00    +0.000 A 
ENDROOT
BRANCH   5  12
ATOM     12  C   UNL     1      90.830  -1.780  24.169  0.00  0.00    +0.000 A 
ATOM     13  C   UNL     1      91.059  -0.953  23.065  0.00  0.00    +0.000 A 
ATOM     14  C   UNL     1      91.472  -3.018  24.250  0.00  0.00    +0.000 A 
ATOM     15  C   UNL     1      91.924  -1.363  22.051  0.00  0.00    +0.000 A 
ATOM     16  C   UNL     1      92.336  -3.427  23.235  0.00  0.00    +0.000 A 
ATOM     17  C   UNL     1      92.563  -2.600  22.135  0.00  0.00    +0.000 A 
BRANCH  17  18
ATOM     18  O   UNL     1      93.407  -2.999  21.146  0.00  0.00    +0.000 OA
ATOM     19  H   UNL     1      94.224  -3.341  21.549  0.00  0.00    +0.000 HD
ENDBRANCH  17  18
ENDBRANCH   5  12
BRANCH   8  20
ATOM     20  O   UNL     1      87.281   0.287  29.252  0.00  0.00    +0.000 OA
ATOM     21  H   UNL     1      86.721  -0.095  29.947  0.00  0.00    +0.000 HD
ENDBRANCH   8  20
BRANCH  10  22
ATOM     22  O   UNL     1      84.001  -1.306  26.209  0.00  0.00    +0.000 OA
ATOM     23  H   UNL     1      83.692  -2.087  26.700  0.00  0.00    +0.000 HD
ENDBRANCH  10  22
TORSDOF 4
ENDMDL
MODEL 8
REMARK VINA RESULT:      -5.5      2.339      7.062
REMARK  Name = 5280443
REMARK  4 active torsions:
REMARK  status: ('A' for Active; 'I' for Inactive)
REMARK    1  A    between atoms: O_2  and  C_12
REMARK    2  A    between atoms: O_4  and  C_14
REMARK    3  A    between atoms: O_5  and  C_20
REMARK    4  A    between atoms: C_8  and  C_9
REMARK                            x       y       z     vdW  Elec       q    Type
REMARK                         _______ _______ _______ _____ _____    ______ ____
ROOT
ATOM      1  O   UNL     1      89.874  -2.573  20.392  0.00  0.00    +0.000 OA
ATOM      2  O   UNL     1      88.996   1.386  20.782  0.00  0.00    +0.000 OA
ATOM      3  C   UNL     1      89.013  -0.530  19.399  0.00  0.00    +0.000 A 
ATOM      4  C   UNL     1      89.335  -1.884  19.334  0.00  0.00    +0.000 A 
ATOM      5  C   UNL     1      90.115  -1.887  21.573  0.00  0.00    +0.000 A 
ATOM      6  C   UNL     1      89.257   0.199  20.654  0.00  0.00    +0.000 A 
ATOM      7  C   UNL     1      89.841  -0.586  21.761  0.00  0.00    +0.000 A 
ATOM      8  C   UNL     1      88.466   0.119  18.291  0.00  0.00    +0.000 A 
ATOM      9  C   UNL     1      89.112  -2.599  18.158  0.00  0.00    +0.000 A 
ATOM     10  C   UNL     1      88.565  -1.954  17.048  0.00  0.00    +0.000 A 
ATOM     11  C   UNL     1      88.243  -0.597  17.114  0.00  0.00    +0.000 A 
ENDROOT
BRANCH   5  12
ATOM     12  C   UNL     1      90.689  -2.723  22.645  0.00  0.00    +0.000 A 
ATOM     13  C   UNL     1      90.483  -4.105  22.644  0.00  0.00    +0.000 A 
ATOM     14  C   UNL     1      91.442  -2.137  23.665  0.00  0.00    +0.000 A 
ATOM     15  C   UNL     1      91.027  -4.896  23.657  0.00  0.00    +0.000 A 
ATOM     16  C   UNL     1      91.985  -2.928  24.678  0.00  0.00    +0.000 A 
ATOM     17  C   UNL     1      91.777  -4.307  24.674  0.00  0.00    +0.000 A 
BRANCH  17  18
ATOM     18  O   UNL     1      92.308  -5.078  25.662  0.00  0.00    +0.000 OA
ATOM     19  H   UNL     1      91.850  -4.879  26.497  0.00  0.00    +0.000 HD
ENDBRANCH  17  18
ENDBRANCH   5  12
BRANCH   8  20
ATOM     20  O   UNL     1      88.133   1.441  18.304  0.00  0.00    +0.000 OA
ATOM     21  H   UNL     1      87.351   1.589  18.858  0.00  0.00    +0.000 HD
ENDBRANCH   8  20
BRANCH  10  22
ATOM     22  O   UNL     1      88.345  -2.649  15.898  0.00  0.00    +0.000 OA
ATOM     23  H   UNL     1      88.933  -2.304  15.203  0.00  0.00    +0.000 HD
ENDBRANCH  10  22
TORSDOF 4
ENDMDL
MODEL 9
REMARK VINA RESULT:      -5.5      2.609      6.559
REMARK  Name = 5280443
REMARK  4 active torsions:
REMARK  status: ('A' for Active; 'I' for Inactive)
REMARK    1  A    between atoms: O_2  and  C_12
REMARK    2  A    between atoms: O_4  and  C_14
REMARK    3  A    between atoms: O_5  and  C_20
REMARK    4  A    between atoms: C_8  and  C_9
REMARK                            x       y       z     vdW  Elec       q    Type
REMARK                         _______ _______ _______ _____ _____    ______ ____
ROOT
ATOM      1  O   UNL     1      89.826  -0.692  24.873  0.00  0.00    +0.000 OA
ATOM      2  O   UNL     1      86.614  -0.810  22.371  0.00  0.00    +0.000 OA
ATOM      3  C   UNL     1      88.960  -0.945  22.619  0.00  0.00    +0.000 A 
ATOM      4  C   UNL     1      90.013  -0.895  23.529  0.00  0.00    +0.000 A 
ATOM      5  C   UNL     1      88.532  -0.522  25.342  0.00  0.00    +0.000 A 
ATOM      6  C   UNL     1      87.585  -0.775  23.113  0.00  0.00    +0.000 A 
ATOM      7  C   UNL     1      87.437  -0.557  24.566  0.00  0.00    +0.000 A 
ATOM      8  C   UNL     1      89.210  -1.156  21.261  0.00  0.00    +0.000 A 
ATOM      9  C   UNL     1      91.326  -1.056  23.087  0.00  0.00    +0.000 A 
ATOM     10  C   UNL     1      91.581  -1.266  21.731  0.00  0.00    +0.000 A 
ATOM     11  C   UNL     1      90.524  -1.315  20.819  0.00  0.00    +0.000 A 
ENDROOT
BRANCH   5  12
ATOM     12  C   UNL     1      88.445  -0.317  26.801  0.00  0.00    +0.000 A 
ATOM     13  C   UNL     1      87.211  -0.412  27.451  0.00  0.00    +0.000 A 
ATOM     14  C   UNL     1      89.595  -0.028  27.539  0.00  0.00    +0.000 A 
ATOM     15  C   UNL     1      87.129  -0.219  28.830  0.00  0.00    +0.000 A 
ATOM     16  C   UNL     1      89.512   0.165  28.918  0.00  0.00    +0.000 A 
ATOM     17  C   UNL     1      88.279   0.070  29.564  0.00  0.00    +0.000 A 
BRANCH  17  18
ATOM     18  O   UNL     1      88.200   0.257  30.909  0.00  0.00    +0.000 OA
ATOM     19  H   UNL     1      87.267   0.197  31.180  0.00  0.00    +0.000 HD
ENDBRANCH  17  18
ENDBRANCH   5  12
BRANCH   8  20
ATOM     20  O   UNL     1      88.215  -1.214  20.331  0.00  0.00    +0.000 OA
ATOM     21  H   UNL     1      87.403  -0.813  20.678  0.00  0.00    +0.000 HD
ENDBRANCH   8  20
BRANCH  10  22
ATOM     22  O   UNL     1      92.861  -1.423  21.296  0.00  0.00    +0.000 OA
ATOM     23  H   UNL     1      92.885  -1.291  20.332  0.00  0.00    +0.000 HD
ENDBRANCH  10  22
TORSDOF 4
ENDMDL
