MODEL 1
REMARK VINA RESULT:      -5.7      0.000      0.000
REMARK  Name = 155598690
REMARK  7 active torsions:
REMARK  status: ('A' for Active; 'I' for Inactive)
REMARK    1  A    between atoms: O_1  and  C_11
REMARK    2  A    between atoms: O_1  and  C_16
REMARK    3  A    between atoms: O_3  and  C_19
REMARK    4  A    between atoms: O_3  and  C_25
REMARK    5  A    between atoms: N_4  and  C_10
REMARK    6  A    between atoms: C_16  and  C_19
REMARK    7  A    between atoms: C_17  and  C_18
REMARK                            x       y       z     vdW  Elec       q    Type
REMARK                         _______ _______ _______ _____ _____    ______ ____
ROOT
ATOM      1  O   UNL     1      86.098  -0.639  27.511  0.00  0.00    +0.000 OA
ATOM      2  N   UNL     1      88.353  -0.641  28.048  0.00  0.00    +0.000 N 
ATOM      3  C   UNL     1      87.007  -0.444  28.312  0.00  0.00    +0.000 C 
ATOM      4  H   UNL     1      89.037  -0.399  28.760  0.00  0.00    +0.000 HD
ENDROOT
BRANCH   3  10
ATOM      5  N   UNL     1      86.408   1.380  29.804  0.00  0.00    +0.000 NA
ATOM      6  N   UNL     1      86.862  -2.072  30.998  0.00  0.00    +0.000 N 
ATOM      7  N   UNL     1      86.047   1.137  32.198  0.00  0.00    +0.000 NA
ATOM      8  N   UNL     1      85.838   3.190  31.140  0.00  0.00    +0.000 N 
ATOM      9  N   UNL     1      85.315   5.148  32.048  0.00  0.00    +0.000 NA
ATOM     10  C   UNL     1      86.681   0.063  29.670  0.00  0.00    +0.000 A 
ATOM     11  C   UNL     1      86.641  -0.733  30.800  0.00  0.00    +0.000 A 
ATOM     12  C   UNL     1      86.325  -0.180  32.037  0.00  0.00    +0.000 A 
ATOM     13  C   UNL     1      86.112   1.830  31.043  0.00  0.00    +0.000 A 
ATOM     14  C   UNL     1      86.361  -1.223  32.995  0.00  0.00    +0.000 A 
ATOM     15  C   UNL     1      86.695  -2.379  32.325  0.00  0.00    +0.000 A 
ATOM     16  C   UNL     1      85.841   4.091  30.114  0.00  0.00    +0.000 A 
ATOM     17  C   UNL     1      85.516   3.870  32.281  0.00  0.00    +0.000 A 
ATOM     18  C   UNL     1      85.515   5.292  30.698  0.00  0.00    +0.000 A 
ATOM     19  H   UNL     1      87.111  -2.736  30.276  0.00  0.00    +0.000 HD
ENDBRANCH   3  10
BRANCH   2  20
ATOM     20  C   UNL     1      88.831  -1.105  26.767  0.00  0.00    +0.000 C 
ATOM     21  C   UNL     1      90.785  -1.079  24.553  0.00  0.00    +0.000 C 
ATOM     22  C   UNL     1      88.871   0.047  25.760  0.00  0.00    +0.000 C 
ATOM     23  C   UNL     1      90.202  -1.773  26.912  0.00  0.00    +0.000 C 
ATOM     24  C   UNL     1      89.418  -0.412  24.411  0.00  0.00    +0.000 C 
ATOM     25  C   UNL     1      90.744  -2.226  25.559  0.00  0.00    +0.000 C 
BRANCH  21  26
ATOM     26  O   UNL     1      91.200  -1.592  23.292  0.00  0.00    +0.000 OA
BRANCH  26  27
ATOM     27  C   UNL     1      91.726  -0.568  22.461  0.00  0.00    +0.000 C 
BRANCH  27  28
ATOM     28  C   UNL     1      91.134  -0.705  21.071  0.00  0.00    +0.000 C 
BRANCH  28  29
ATOM     29  O   UNL     1      90.485   0.511  20.722  0.00  0.00    +0.000 OA
ATOM     30  C   UNL     1      89.071   0.384  20.791  0.00  0.00    +0.000 C 
ENDBRANCH  28  29
ENDBRANCH  27  28
ENDBRANCH  26  27
ENDBRANCH  21  26
ENDBRANCH   2  20
TORSDOF 6
ENDMDL
MODEL 2
REMARK VINA RESULT:      -5.6      2.685      3.418
REMARK  Name = 155598690
REMARK  7 active torsions:
REMARK  status: ('A' for Active; 'I' for Inactive)
REMARK    1  A    between atoms: O_1  and  C_11
REMARK    2  A    between atoms: O_1  and  C_16
REMARK    3  A    between atoms: O_3  and  C_19
REMARK    4  A    between atoms: O_3  and  C_25
REMARK    5  A    between atoms: N_4  and  C_10
REMARK    6  A    between atoms: C_16  and  C_19
REMARK    7  A    between atoms: C_17  and  C_18
REMARK                            x       y       z     vdW  Elec       q    Type
REMARK                         _______ _______ _______ _____ _____    ______ ____
ROOT
ATOM      1  O   UNL     1      87.698  -2.163  27.156  0.00  0.00    +0.000 OA
ATOM      2  N   UNL     1      88.133  -0.163  26.065  0.00  0.00    +0.000 N 
ATOM      3  C   UNL     1      87.565  -0.947  27.058  0.00  0.00    +0.000 C 
ATOM      4  H   UNL     1      87.920   0.830  26.038  0.00  0.00    +0.000 HD
ENDROOT
BRANCH   3  10
ATOM      5  N   UNL     1      85.444   0.048  27.705  0.00  0.00    +0.000 NA
ATOM      6  N   UNL     1      88.378   0.051  29.927  0.00  0.00    +0.000 N 
ATOM      7  N   UNL     1      85.027   1.132  29.844  0.00  0.00    +0.000 NA
ATOM      8  N   UNL     1      83.377   0.968  28.224  0.00  0.00    +0.000 N 
ATOM      9  N   UNL     1      81.287   1.711  28.322  0.00  0.00    +0.000 NA
ATOM     10  C   UNL     1      86.722  -0.227  28.047  0.00  0.00    +0.000 A 
ATOM     11  C   UNL     1      87.168   0.175  29.293  0.00  0.00    +0.000 A 
ATOM     12  C   UNL     1      86.313   0.844  30.163  0.00  0.00    +0.000 A 
ATOM     13  C   UNL     1      84.685   0.702  28.613  0.00  0.00    +0.000 A 
ATOM     14  C   UNL     1      87.039   1.125  31.346  0.00  0.00    +0.000 A 
ATOM     15  C   UNL     1      88.311   0.624  31.172  0.00  0.00    +0.000 A 
ATOM     16  C   UNL     1      82.803   0.632  27.031  0.00  0.00    +0.000 A 
ATOM     17  C   UNL     1      82.428   1.614  28.966  0.00  0.00    +0.000 A 
ATOM     18  C   UNL     1      81.514   1.101  27.115  0.00  0.00    +0.000 A 
ATOM     19  H   UNL     1      89.199  -0.394  29.538  0.00  0.00    +0.000 HD
ENDBRANCH   3  10
BRANCH   2  20
ATOM     20  C   UNL     1      88.957  -0.718  25.018  0.00  0.00    +0.000 C 
ATOM     21  C   UNL     1      91.116  -0.502  23.014  0.00  0.00    +0.000 C 
ATOM     22  C   UNL     1      88.749   0.049  23.709  0.00  0.00    +0.000 C 
ATOM     23  C   UNL     1      90.430  -0.727  25.436  0.00  0.00    +0.000 C 
ATOM     24  C   UNL     1      89.646  -0.492  22.599  0.00  0.00    +0.000 C 
ATOM     25  C   UNL     1      91.321  -1.266  24.320  0.00  0.00    +0.000 C 
BRANCH  21  26
ATOM     26  O   UNL     1      91.896  -1.119  21.997  0.00  0.00    +0.000 OA
BRANCH  26  27
ATOM     27  C   UNL     1      91.356  -2.376  21.617  0.00  0.00    +0.000 C 
BRANCH  27  28
ATOM     28  C   UNL     1      92.476  -3.397  21.552  0.00  0.00    +0.000 C 
BRANCH  28  29
ATOM     29  O   UNL     1      92.042  -4.512  20.781  0.00  0.00    +0.000 OA
ATOM     30  C   UNL     1      90.687  -4.369  20.377  0.00  0.00    +0.000 C 
ENDBRANCH  28  29
ENDBRANCH  27  28
ENDBRANCH  26  27
ENDBRANCH  21  26
ENDBRANCH   2  20
TORSDOF 6
ENDMDL
MODEL 3
REMARK VINA RESULT:      -5.5      3.258      8.850
REMARK  Name = 155598690
REMARK  7 active torsions:
REMARK  status: ('A' for Active; 'I' for Inactive)
REMARK    1  A    between atoms: O_1  and  C_11
REMARK    2  A    between atoms: O_1  and  C_16
REMARK    3  A    between atoms: O_3  and  C_19
REMARK    4  A    between atoms: O_3  and  C_25
REMARK    5  A    between atoms: N_4  and  C_10
REMARK    6  A    between atoms: C_16  and  C_19
REMARK    7  A    between atoms: C_17  and  C_18
REMARK                            x       y       z     vdW  Elec       q    Type
REMARK                         _______ _______ _______ _____ _____    ______ ____
ROOT
ATOM      1  O   UNL     1      87.200  -2.620  27.301  0.00  0.00    +0.000 OA
ATOM      2  N   UNL     1      88.463  -0.833  28.067  0.00  0.00    +0.000 N 
ATOM      3  C   UNL     1      88.201  -1.912  27.238  0.00  0.00    +0.000 C 
ATOM      4  H   UNL     1      89.347  -0.340  27.972  0.00  0.00    +0.000 HD
ENDROOT
BRANCH   3  10
ATOM      5  N   UNL     1      89.191  -1.556  25.046  0.00  0.00    +0.000 NA
ATOM      6  N   UNL     1      90.582  -3.952  27.468  0.00  0.00    +0.000 N 
ATOM      7  N   UNL     1      91.168  -2.713  24.224  0.00  0.00    +0.000 NA
ATOM      8  N   UNL     1      90.056  -1.140  22.933  0.00  0.00    +0.000 N 
ATOM      9  N   UNL     1      90.553  -0.461  20.878  0.00  0.00    +0.000 NA
ATOM     10  C   UNL     1      89.242  -2.217  26.223  0.00  0.00    +0.000 A 
ATOM     11  C   UNL     1      90.258  -3.136  26.415  0.00  0.00    +0.000 A 
ATOM     12  C   UNL     1      91.197  -3.364  25.413  0.00  0.00    +0.000 A 
ATOM     13  C   UNL     1      90.144  -1.840  24.131  0.00  0.00    +0.000 A 
ATOM     14  C   UNL     1      92.102  -4.343  25.889  0.00  0.00    +0.000 A 
ATOM     15  C   UNL     1      91.698  -4.688  27.160  0.00  0.00    +0.000 A 
ATOM     16  C   UNL     1      89.112  -0.208  22.608  0.00  0.00    +0.000 A 
ATOM     17  C   UNL     1      90.900  -1.258  21.865  0.00  0.00    +0.000 A 
ATOM     18  C   UNL     1      89.439   0.196  21.336  0.00  0.00    +0.000 A 
ATOM     19  H   UNL     1      90.076  -4.006  28.343  0.00  0.00    +0.000 HD
ENDBRANCH   3  10
BRANCH   2  20
ATOM     20  C   UNL     1      87.561  -0.427  29.118  0.00  0.00    +0.000 C 
ATOM     21  C   UNL     1      86.191   1.643  30.718  0.00  0.00    +0.000 C 
ATOM     22  C   UNL     1      88.309   0.370  30.190  0.00  0.00    +0.000 C 
ATOM     23  C   UNL     1      86.385   0.369  28.545  0.00  0.00    +0.000 C 
ATOM     24  C   UNL     1      87.365   0.849  31.289  0.00  0.00    +0.000 C 
ATOM     25  C   UNL     1      85.447   0.848  29.649  0.00  0.00    +0.000 C 
BRANCH  21  26
ATOM     26  O   UNL     1      85.280   1.968  31.762  0.00  0.00    +0.000 OA
BRANCH  26  27
ATOM     27  C   UNL     1      85.669   3.153  32.442  0.00  0.00    +0.000 C 
BRANCH  27  28
ATOM     28  C   UNL     1      85.924   4.248  31.423  0.00  0.00    +0.000 C 
BRANCH  28  29
ATOM     29  O   UNL     1      87.189   4.841  31.688  0.00  0.00    +0.000 OA
ATOM     30  C   UNL     1      87.414   4.986  33.083  0.00  0.00    +0.000 C 
ENDBRANCH  28  29
ENDBRANCH  27  28
ENDBRANCH  26  27
ENDBRANCH  21  26
ENDBRANCH   2  20
TORSDOF 6
ENDMDL
MODEL 4
REMARK VINA RESULT:      -5.3      1.997      2.555
REMARK  Name = 155598690
REMARK  7 active torsions:
REMARK  status: ('A' for Active; 'I' for Inactive)
REMARK    1  A    between atoms: O_1  and  C_11
REMARK    2  A    between atoms: O_1  and  C_16
REMARK    3  A    between atoms: O_3  and  C_19
REMARK    4  A    between atoms: O_3  and  C_25
REMARK    5  A    between atoms: N_4  and  C_10
REMARK    6  A    between atoms: C_16  and  C_19
REMARK    7  A    between atoms: C_17  and  C_18
REMARK                            x       y       z     vdW  Elec       q    Type
REMARK                         _______ _______ _______ _____ _____    ______ ____
ROOT
ATOM      1  O   UNL     1      89.624   0.188  28.547  0.00  0.00    +0.000 OA
ATOM      2  N   UNL     1      88.021  -0.091  26.895  0.00  0.00    +0.000 N 
ATOM      3  C   UNL     1      88.456   0.021  28.206  0.00  0.00    +0.000 C 
ATOM      4  H   UNL     1      87.039  -0.283  26.715  0.00  0.00    +0.000 HD
ENDROOT
BRANCH   3  10
ATOM      5  N   UNL     1      87.137   0.990  30.003  0.00  0.00    +0.000 NA
ATOM      6  N   UNL     1      86.724  -2.503  28.921  0.00  0.00    +0.000 N 
ATOM      7  N   UNL     1      85.432  -0.209  31.260  0.00  0.00    +0.000 NA
ATOM      8  N   UNL     1      85.931   2.012  31.703  0.00  0.00    +0.000 N 
ATOM      9  N   UNL     1      85.018   3.338  33.232  0.00  0.00    +0.000 NA
ATOM     10  C   UNL     1      87.406  -0.099  29.250  0.00  0.00    +0.000 A 
ATOM     11  C   UNL     1      86.692  -1.258  29.494  0.00  0.00    +0.000 A 
ATOM     12  C   UNL     1      85.722  -1.287  30.491  0.00  0.00    +0.000 A 
ATOM     13  C   UNL     1      86.179   0.870  30.949  0.00  0.00    +0.000 A 
ATOM     14  C   UNL     1      85.165  -2.589  30.508  0.00  0.00    +0.000 A 
ATOM     15  C   UNL     1      85.802  -3.319  29.529  0.00  0.00    +0.000 A 
ATOM     16  C   UNL     1      86.557   3.219  31.572  0.00  0.00    +0.000 A 
ATOM     17  C   UNL     1      85.015   2.132  32.710  0.00  0.00    +0.000 A 
ATOM     18  C   UNL     1      85.977   4.021  32.527  0.00  0.00    +0.000 A 
ATOM     19  H   UNL     1      87.335  -2.783  28.164  0.00  0.00    +0.000 HD
ENDBRANCH   3  10
BRANCH   2  20
ATOM     20  C   UNL     1      88.923  -0.021  25.770  0.00  0.00    +0.000 C 
ATOM     21  C   UNL     1      90.157  -1.176  23.349  0.00  0.00    +0.000 C 
ATOM     22  C   UNL     1      89.989  -1.116  25.869  0.00  0.00    +0.000 C 
ATOM     23  C   UNL     1      88.150  -0.107  24.451  0.00  0.00    +0.000 C 
ATOM     24  C   UNL     1      90.926  -1.091  24.665  0.00  0.00    +0.000 C 
ATOM     25  C   UNL     1      89.094  -0.084  23.252  0.00  0.00    +0.000 C 
BRANCH  21  26
ATOM     26  O   UNL     1      91.059  -1.032  22.257  0.00  0.00    +0.000 OA
BRANCH  26  27
ATOM     27  C   UNL     1      90.869  -2.051  21.287  0.00  0.00    +0.000 C 
BRANCH  27  28
ATOM     28  C   UNL     1      91.779  -3.220  21.612  0.00  0.00    +0.000 C 
BRANCH  28  29
ATOM     29  O   UNL     1      91.632  -4.215  20.607  0.00  0.00    +0.000 OA
ATOM     30  C   UNL     1      91.315  -5.481  21.170  0.00  0.00    +0.000 C 
ENDBRANCH  28  29
ENDBRANCH  27  28
ENDBRANCH  26  27
ENDBRANCH  21  26
ENDBRANCH   2  20
TORSDOF 6
ENDMDL
MODEL 5
REMARK VINA RESULT:      -5.1      1.298      3.835
REMARK  Name = 155598690
REMARK  7 active torsions:
REMARK  status: ('A' for Active; 'I' for Inactive)
REMARK    1  A    between atoms: O_1  and  C_11
REMARK    2  A    between atoms: O_1  and  C_16
REMARK    3  A    between atoms: O_3  and  C_19
REMARK    4  A    between atoms: O_3  and  C_25
REMARK    5  A    between atoms: N_4  and  C_10
REMARK    6  A    between atoms: C_16  and  C_19
REMARK    7  A    between atoms: C_17  and  C_18
REMARK                            x       y       z     vdW  Elec       q    Type
REMARK                         _______ _______ _______ _____ _____    ______ ____
ROOT
ATOM      1  O   UNL     1      86.246  -0.377  27.509  0.00  0.00    +0.000 OA
ATOM      2  N   UNL     1      88.384  -0.989  28.168  0.00  0.00    +0.000 N 
ATOM      3  C   UNL     1      87.089  -0.542  28.386  0.00  0.00    +0.000 C 
ATOM      4  H   UNL     1      89.026  -1.042  28.954  0.00  0.00    +0.000 HD
ENDROOT
BRANCH   3  10
ATOM      5  N   UNL     1      86.870  -1.214  30.712  0.00  0.00    +0.000 NA
ATOM      6  N   UNL     1      86.056   2.185  29.560  0.00  0.00    +0.000 N 
ATOM      7  N   UNL     1      86.108   0.249  32.501  0.00  0.00    +0.000 NA
ATOM      8  N   UNL     1      86.698  -1.957  32.904  0.00  0.00    +0.000 N 
ATOM      9  N   UNL     1      86.674  -3.046  34.839  0.00  0.00    +0.000 NA
ATOM     10  C   UNL     1      86.740  -0.230  29.795  0.00  0.00    +0.000 A 
ATOM     11  C   UNL     1      86.291   1.007  30.221  0.00  0.00    +0.000 A 
ATOM     12  C   UNL     1      85.986   1.219  31.562  0.00  0.00    +0.000 A 
ATOM     13  C   UNL     1      86.551  -0.918  31.991  0.00  0.00    +0.000 A 
ATOM     14  C   UNL     1      85.557   2.562  31.697  0.00  0.00    +0.000 A 
ATOM     15  C   UNL     1      85.611   3.135  30.445  0.00  0.00    +0.000 A 
ATOM     16  C   UNL     1      87.129  -3.223  32.626  0.00  0.00    +0.000 A 
ATOM     17  C   UNL     1      86.437  -1.898  34.244  0.00  0.00    +0.000 A 
ATOM     18  C   UNL     1      87.106  -3.877  33.835  0.00  0.00    +0.000 A 
ATOM     19  H   UNL     1      86.189   2.335  28.568  0.00  0.00    +0.000 HD
ENDBRANCH   3  10
BRANCH   2  20
ATOM     20  C   UNL     1      88.881  -1.309  26.852  0.00  0.00    +0.000 C 
ATOM     21  C   UNL     1      90.913  -1.110  24.718  0.00  0.00    +0.000 C 
ATOM     22  C   UNL     1      89.022  -0.039  26.008  0.00  0.00    +0.000 C 
ATOM     23  C   UNL     1      90.207  -2.070  26.945  0.00  0.00    +0.000 C 
ATOM     24  C   UNL     1      89.591  -0.349  24.626  0.00  0.00    +0.000 C 
ATOM     25  C   UNL     1      90.772  -2.374  25.561  0.00  0.00    +0.000 C 
BRANCH  21  26
ATOM     26  O   UNL     1      91.345  -1.477  23.413  0.00  0.00    +0.000 OA
BRANCH  26  27
ATOM     27  C   UNL     1      90.353  -2.229  22.729  0.00  0.00    +0.000 C 
BRANCH  27  28
ATOM     28  C   UNL     1      90.563  -2.082  21.234  0.00  0.00    +0.000 C 
BRANCH  28  29
ATOM     29  O   UNL     1      89.698  -1.066  20.742  0.00  0.00    +0.000 OA
ATOM     30  C   UNL     1      90.428   0.070  20.299  0.00  0.00    +0.000 C 
ENDBRANCH  28  29
ENDBRANCH  27  28
ENDBRANCH  26  27
ENDBRANCH  21  26
ENDBRANCH   2  20
TORSDOF 6
ENDMDL
MODEL 6
REMARK VINA RESULT:      -5.1      3.565      8.642
REMARK  Name = 155598690
REMARK  7 active torsions:
REMARK  status: ('A' for Active; 'I' for Inactive)
REMARK    1  A    between atoms: O_1  and  C_11
REMARK    2  A    between atoms: O_1  and  C_16
REMARK    3  A    between atoms: O_3  and  C_19
REMARK    4  A    between atoms: O_3  and  C_25
REMARK    5  A    between atoms: N_4  and  C_10
REMARK    6  A    between atoms: C_16  and  C_19
REMARK    7  A    between atoms: C_17  and  C_18
REMARK                            x       y       z     vdW  Elec       q    Type
REMARK                         _______ _______ _______ _____ _____    ______ ____
ROOT
ATOM      1  O   UNL     1      87.590  -3.417  27.417  0.00  0.00    +0.000 OA
ATOM      2  N   UNL     1      88.334  -1.235  27.660  0.00  0.00    +0.000 N 
ATOM      3  C   UNL     1      88.407  -2.533  27.178  0.00  0.00    +0.000 C 
ATOM      4  H   UNL     1      89.090  -0.587  27.450  0.00  0.00    +0.000 HD
ENDROOT
BRANCH   3  10
ATOM      5  N   UNL     1      89.743  -2.151  25.184  0.00  0.00    +0.000 NA
ATOM      6  N   UNL     1      90.663  -4.655  27.719  0.00  0.00    +0.000 N 
ATOM      7  N   UNL     1      91.792  -3.351  24.649  0.00  0.00    +0.000 NA
ATOM      8  N   UNL     1      90.946  -1.708  23.248  0.00  0.00    +0.000 N 
ATOM      9  N   UNL     1      91.783  -0.992  21.321  0.00  0.00    +0.000 NA
ATOM     10  C   UNL     1      89.588  -2.845  26.333  0.00  0.00    +0.000 A 
ATOM     11  C   UNL     1      90.534  -3.802  26.654  0.00  0.00    +0.000 A 
ATOM     12  C   UNL     1      91.614  -4.033  25.807  0.00  0.00    +0.000 A 
ATOM     13  C   UNL     1      90.822  -2.443  24.423  0.00  0.00    +0.000 A 
ATOM     14  C   UNL     1      92.403  -5.054  26.389  0.00  0.00    +0.000 A 
ATOM     15  C   UNL     1      91.793  -5.419  27.569  0.00  0.00    +0.000 A 
ATOM     16  C   UNL     1      90.092  -0.738  22.807  0.00  0.00    +0.000 A 
ATOM     17  C   UNL     1      91.945  -1.825  22.324  0.00  0.00    +0.000 A 
ATOM     18  C   UNL     1      90.629  -0.311  21.616  0.00  0.00    +0.000 A 
ATOM     19  H   UNL     1      90.023  -4.716  28.500  0.00  0.00    +0.000 HD
ENDBRANCH   3  10
BRANCH   2  20
ATOM     20  C   UNL     1      87.262  -0.785  28.514  0.00  0.00    +0.000 C 
ATOM     21  C   UNL     1      85.494   1.327  29.580  0.00  0.00    +0.000 C 
ATOM     22  C   UNL     1      87.777   0.245  29.524  0.00  0.00    +0.000 C 
ATOM     23  C   UNL     1      86.105  -0.225  27.682  0.00  0.00    +0.000 C 
ATOM     24  C   UNL     1      86.649   0.769  30.409  0.00  0.00    +0.000 C 
ATOM     25  C   UNL     1      84.983   0.300  28.573  0.00  0.00    +0.000 C 
BRANCH  21  26
ATOM     26  O   UNL     1      84.422   1.696  30.440  0.00  0.00    +0.000 OA
BRANCH  26  27
ATOM     27  C   UNL     1      83.556   2.634  29.820  0.00  0.00    +0.000 C 
BRANCH  27  28
ATOM     28  C   UNL     1      84.344   3.883  29.474  0.00  0.00    +0.000 C 
BRANCH  28  29
ATOM     29  O   UNL     1      83.705   4.548  28.391  0.00  0.00    +0.000 OA
ATOM     30  C   UNL     1      83.070   3.627  27.515  0.00  0.00    +0.000 C 
ENDBRANCH  28  29
ENDBRANCH  27  28
ENDBRANCH  26  27
ENDBRANCH  21  26
ENDBRANCH   2  20
TORSDOF 6
ENDMDL
MODEL 7
REMARK VINA RESULT:      -5.0      3.347      9.009
REMARK  Name = 155598690
REMARK  7 active torsions:
REMARK  status: ('A' for Active; 'I' for Inactive)
REMARK    1  A    between atoms: O_1  and  C_11
REMARK    2  A    between atoms: O_1  and  C_16
REMARK    3  A    between atoms: O_3  and  C_19
REMARK    4  A    between atoms: O_3  and  C_25
REMARK    5  A    between atoms: N_4  and  C_10
REMARK    6  A    between atoms: C_16  and  C_19
REMARK    7  A    between atoms: C_17  and  C_18
REMARK                            x       y       z     vdW  Elec       q    Type
REMARK                         _______ _______ _______ _____ _____    ______ ____
ROOT
ATOM      1  O   UNL     1      87.259  -2.765  27.372  0.00  0.00    +0.000 OA
ATOM      2  N   UNL     1      88.413  -0.870  28.043  0.00  0.00    +0.000 N 
ATOM      3  C   UNL     1      88.211  -1.999  27.264  0.00  0.00    +0.000 C 
ATOM      4  H   UNL     1      89.263  -0.326  27.914  0.00  0.00    +0.000 HD
ENDROOT
BRANCH   3  10
ATOM      5  N   UNL     1      89.206  -1.604  25.081  0.00  0.00    +0.000 NA
ATOM      6  N   UNL     1      90.608  -4.023  27.474  0.00  0.00    +0.000 N 
ATOM      7  N   UNL     1      91.195  -2.734  24.250  0.00  0.00    +0.000 NA
ATOM      8  N   UNL     1      90.076  -1.151  22.977  0.00  0.00    +0.000 N 
ATOM      9  N   UNL     1      90.575  -0.440  20.934  0.00  0.00    +0.000 NA
ATOM     10  C   UNL     1      89.259  -2.281  26.249  0.00  0.00    +0.000 A 
ATOM     11  C   UNL     1      90.281  -3.195  26.431  0.00  0.00    +0.000 A 
ATOM     12  C   UNL     1      91.225  -3.401  25.430  0.00  0.00    +0.000 A 
ATOM     13  C   UNL     1      90.165  -1.868  24.166  0.00  0.00    +0.000 A 
ATOM     14  C   UNL     1      92.137  -4.380  25.895  0.00  0.00    +0.000 A 
ATOM     15  C   UNL     1      91.731  -4.746  27.160  0.00  0.00    +0.000 A 
ATOM     16  C   UNL     1      89.126  -0.223  22.662  0.00  0.00    +0.000 A 
ATOM     17  C   UNL     1      90.925  -1.247  21.911  0.00  0.00    +0.000 A 
ATOM     18  C   UNL     1      89.454   0.203  21.397  0.00  0.00    +0.000 A 
ATOM     19  H   UNL     1      90.099  -4.093  28.346  0.00  0.00    +0.000 HD
ENDBRANCH   3  10
BRANCH   2  20
ATOM     20  C   UNL     1      87.499  -0.476  29.088  0.00  0.00    +0.000 C 
ATOM     21  C   UNL     1      86.084   1.575  30.672  0.00  0.00    +0.000 C 
ATOM     22  C   UNL     1      88.227   0.338  30.160  0.00  0.00    +0.000 C 
ATOM     23  C   UNL     1      86.312   0.296  28.505  0.00  0.00    +0.000 C 
ATOM     24  C   UNL     1      87.269   0.805  31.252  0.00  0.00    +0.000 C 
ATOM     25  C   UNL     1      85.359   0.762  29.603  0.00  0.00    +0.000 C 
BRANCH  21  26
ATOM     26  O   UNL     1      85.162   1.887  31.711  0.00  0.00    +0.000 OA
BRANCH  26  27
ATOM     27  C   UNL     1      85.181   0.905  32.736  0.00  0.00    +0.000 C 
BRANCH  27  28
ATOM     28  C   UNL     1      83.757   0.484  33.046  0.00  0.00    +0.000 C 
BRANCH  28  29
ATOM     29  O   UNL     1      83.731  -0.917  33.287  0.00  0.00    +0.000 OA
ATOM     30  C   UNL     1      84.613  -1.612  32.416  0.00  0.00    +0.000 C 
ENDBRANCH  28  29
ENDBRANCH  27  28
ENDBRANCH  26  27
ENDBRANCH  21  26
ENDBRANCH   2  20
TORSDOF 6
ENDMDL
MODEL 8
REMARK VINA RESULT:      -5.0      1.982      2.204
REMARK  Name = 155598690
REMARK  7 active torsions:
REMARK  status: ('A' for Active; 'I' for Inactive)
REMARK    1  A    between atoms: O_1  and  C_11
REMARK    2  A    between atoms: O_1  and  C_16
REMARK    3  A    between atoms: O_3  and  C_19
REMARK    4  A    between atoms: O_3  and  C_25
REMARK    5  A    between atoms: N_4  and  C_10
REMARK    6  A    between atoms: C_16  and  C_19
REMARK    7  A    between atoms: C_17  and  C_18
REMARK                            x       y       z     vdW  Elec       q    Type
REMARK                         _______ _______ _______ _____ _____    ______ ____
ROOT
ATOM      1  O   UNL     1      87.017  -2.195  27.891  0.00  0.00    +0.000 OA
ATOM      2  N   UNL     1      87.640  -0.193  26.901  0.00  0.00    +0.000 N 
ATOM      3  C   UNL     1      87.020  -0.968  27.870  0.00  0.00    +0.000 C 
ATOM      4  H   UNL     1      87.540   0.818  26.940  0.00  0.00    +0.000 HD
ENDROOT
BRANCH   3  10
ATOM      5  N   UNL     1      85.365   0.679  28.548  0.00  0.00    +0.000 NA
ATOM      6  N   UNL     1      87.377  -1.209  30.984  0.00  0.00    +0.000 N 
ATOM      7  N   UNL     1      84.861   1.252  30.859  0.00  0.00    +0.000 NA
ATOM      8  N   UNL     1      83.763   2.269  29.087  0.00  0.00    +0.000 N 
ATOM      9  N   UNL     1      82.181   3.825  29.172  0.00  0.00    +0.000 NA
ATOM     10  C   UNL     1      86.297  -0.221  28.931  0.00  0.00    +0.000 A 
ATOM     11  C   UNL     1      86.523  -0.395  30.285  0.00  0.00    +0.000 A 
ATOM     12  C   UNL     1      85.801   0.344  31.217  0.00  0.00    +0.000 A 
ATOM     13  C   UNL     1      84.713   1.351  29.522  0.00  0.00    +0.000 A 
ATOM     14  C   UNL     1      86.242  -0.045  32.506  0.00  0.00    +0.000 A 
ATOM     15  C   UNL     1      87.215  -1.004  32.331  0.00  0.00    +0.000 A 
ATOM     16  C   UNL     1      83.437   2.543  27.790  0.00  0.00    +0.000 A 
ATOM     17  C   UNL     1      82.983   3.062  29.881  0.00  0.00    +0.000 A 
ATOM     18  C   UNL     1      82.459   3.506  27.867  0.00  0.00    +0.000 A 
ATOM     19  H   UNL     1      88.030  -1.862  30.572  0.00  0.00    +0.000 HD
ENDBRANCH   3  10
BRANCH   2  20
ATOM     20  C   UNL     1      88.360  -0.770  25.792  0.00  0.00    +0.000 C 
ATOM     21  C   UNL     1      89.840  -0.539  23.247  0.00  0.00    +0.000 C 
ATOM     22  C   UNL     1      87.632  -0.487  24.475  0.00  0.00    +0.000 C 
ATOM     23  C   UNL     1      89.802  -0.257  25.757  0.00  0.00    +0.000 C 
ATOM     24  C   UNL     1      88.401  -1.049  23.282  0.00  0.00    +0.000 C 
ATOM     25  C   UNL     1      90.564  -0.820  24.561  0.00  0.00    +0.000 C 
BRANCH  21  26
ATOM     26  O   UNL     1      90.548  -1.177  22.190  0.00  0.00    +0.000 OA
BRANCH  26  27
ATOM     27  C   UNL     1      89.806  -1.157  20.980  0.00  0.00    +0.000 C 
BRANCH  27  28
ATOM     28  C   UNL     1      90.068   0.152  20.260  0.00  0.00    +0.000 C 
BRANCH  28  29
ATOM     29  O   UNL     1      88.832   0.826  20.059  0.00  0.00    +0.000 OA
ATOM     30  C   UNL     1      88.369   0.676  18.723  0.00  0.00    +0.000 C 
ENDBRANCH  28  29
ENDBRANCH  27  28
ENDBRANCH  26  27
ENDBRANCH  21  26
ENDBRANCH   2  20
TORSDOF 6
ENDMDL
MODEL 9
REMARK VINA RESULT:      -4.8      4.195      7.072
REMARK  Name = 155598690
REMARK  7 active torsions:
REMARK  status: ('A' for Active; 'I' for Inactive)
REMARK    1  A    between atoms: O_1  and  C_11
REMARK    2  A    between atoms: O_1  and  C_16
REMARK    3  A    between atoms: O_3  and  C_19
REMARK    4  A    between atoms: O_3  and  C_25
REMARK    5  A    between atoms: N_4  and  C_10
REMARK    6  A    between atoms: C_16  and  C_19
REMARK    7  A    between atoms: C_17  and  C_18
REMARK                            x       y       z     vdW  Elec       q    Type
REMARK                         _______ _______ _______ _____ _____    ______ ____
ROOT
ATOM      1  O   UNL     1      91.345  -2.374  22.502  0.00  0.00    +0.000 OA
ATOM      2  N   UNL     1      89.171  -1.604  22.261  0.00  0.00    +0.000 N 
ATOM      3  C   UNL     1      90.227  -2.164  22.963  0.00  0.00    +0.000 C 
ATOM      4  H   UNL     1      88.266  -1.519  22.715  0.00  0.00    +0.000 HD
ENDROOT
BRANCH   3  10
ATOM      5  N   UNL     1      88.790  -2.100  24.923  0.00  0.00    +0.000 NA
ATOM      6  N   UNL     1      91.989  -3.919  24.887  0.00  0.00    +0.000 N 
ATOM      7  N   UNL     1      89.289  -3.207  27.032  0.00  0.00    +0.000 NA
ATOM      8  N   UNL     1      87.346  -1.976  26.736  0.00  0.00    +0.000 N 
ATOM      9  N   UNL     1      85.721  -1.613  28.205  0.00  0.00    +0.000 NA
ATOM     10  C   UNL     1      89.940  -2.545  24.370  0.00  0.00    +0.000 A 
ATOM     11  C   UNL     1      90.780  -3.326  25.143  0.00  0.00    +0.000 A 
ATOM     12  C   UNL     1      90.437  -3.639  26.455  0.00  0.00    +0.000 A 
ATOM     13  C   UNL     1      88.539  -2.454  26.203  0.00  0.00    +0.000 A 
ATOM     14  C   UNL     1      91.475  -4.441  26.989  0.00  0.00    +0.000 A 
ATOM     15  C   UNL     1      92.420  -4.598  25.999  0.00  0.00    +0.000 A 
ATOM     16  C   UNL     1      86.426  -1.199  26.092  0.00  0.00    +0.000 A 
ATOM     17  C   UNL     1      86.880  -2.199  28.001  0.00  0.00    +0.000 A 
ATOM     18  C   UNL     1      85.433  -0.988  27.018  0.00  0.00    +0.000 A 
ATOM     19  H   UNL     1      92.492  -3.866  24.010  0.00  0.00    +0.000 HD
ENDBRANCH   3  10
BRANCH   2  20
ATOM     20  C   UNL     1      89.285  -1.206  20.879  0.00  0.00    +0.000 C 
ATOM     21  C   UNL     1      88.101  -0.506  18.265  0.00  0.00    +0.000 C 
ATOM     22  C   UNL     1      88.702  -2.282  19.960  0.00  0.00    +0.000 C 
ATOM     23  C   UNL     1      88.614   0.152  20.650  0.00  0.00    +0.000 C 
ATOM     24  C   UNL     1      88.770  -1.861  18.495  0.00  0.00    +0.000 C 
ATOM     25  C   UNL     1      88.684   0.566  19.183  0.00  0.00    +0.000 C 
BRANCH  21  26
ATOM     26  O   UNL     1      88.291  -0.102  16.914  0.00  0.00    +0.000 OA
BRANCH  26  27
ATOM     27  C   UNL     1      88.218   1.309  16.777  0.00  0.00    +0.000 C 
BRANCH  27  28
ATOM     28  C   UNL     1      86.993   1.665  15.956  0.00  0.00    +0.000 C 
BRANCH  28  29
ATOM     29  O   UNL     1      85.885   1.841  16.830  0.00  0.00    +0.000 OA
ATOM     30  C   UNL     1      84.818   0.962  16.500  0.00  0.00    +0.000 C 
ENDBRANCH  28  29
ENDBRANCH  27  28
ENDBRANCH  26  27
ENDBRANCH  21  26
ENDBRANCH   2  20
TORSDOF 6
ENDMDL
