MODEL 1
REMARK VINA RESULT:      -5.9      0.000      0.000
REMARK  Name = 168679856
REMARK  8 active torsions:
REMARK  status: ('A' for Active; 'I' for Inactive)
REMARK    1  A    between atoms: O_4  and  C_23
REMARK    2  A    between atoms: O_4  and  C_28
REMARK    3  A    between atoms: O_5  and  C_24
REMARK    4  A    between atoms: O_5  and  C_29
REMARK    5  A    between atoms: N_10  and  C_19
REMARK    6  A    between atoms: C_14  and  C_18
REMARK    7  A    between atoms: C_16  and  C_20
REMARK    8  A    between atoms: C_23  and  C_24
REMARK                            x       y       z     vdW  Elec       q    Type
REMARK                         _______ _______ _______ _____ _____    ______ ____
ROOT
ATOM      1  N   UNL     1      88.981  -0.804  19.517  0.00  0.00    +0.000 N 
ATOM      2  N   UNL     1      89.049  -0.504  21.824  0.00  0.00    +0.000 NA
ATOM      3  N   UNL     1      90.727  -1.804  20.683  0.00  0.00    +0.000 NA
ATOM      4  N   UNL     1      88.572  -0.856  17.335  0.00  0.00    +0.000 NA
ATOM      5  C   UNL     1      89.689  -0.762  22.983  0.00  0.00    +0.000 A 
ATOM      6  C   UNL     1      89.615  -1.048  20.729  0.00  0.00    +0.000 A 
ATOM      7  C   UNL     1      91.316  -2.022  21.879  0.00  0.00    +0.000 A 
ATOM      8  C   UNL     1      90.837  -1.521  23.072  0.00  0.00    +0.000 A 
ATOM      9  C   UNL     1      87.845  -0.067  19.332  0.00  0.00    +0.000 A 
ATOM     10  C   UNL     1      89.381  -1.256  18.291  0.00  0.00    +0.000 A 
ATOM     11  C   UNL     1      87.612  -0.114  17.978  0.00  0.00    +0.000 A 
ENDROOT
BRANCH   7  15
ATOM     12  F   UNL     1      92.443  -3.989  21.120  0.00  0.00    +0.000 F 
ATOM     13  F   UNL     1      93.634  -2.187  21.376  0.00  0.00    +0.000 F 
ATOM     14  F   UNL     1      92.930  -3.286  23.114  0.00  0.00    +0.000 F 
ATOM     15  C   UNL     1      92.554  -2.856  21.874  0.00  0.00    +0.000 C 
ENDBRANCH   7  15
BRANCH   5  18
ATOM     16  O   UNL     1      88.391   0.834  24.069  0.00  0.00    +0.000 OA
ATOM     17  N   UNL     1      89.345  -0.852  25.403  0.00  0.00    +0.000 N 
ATOM     18  C   UNL     1      89.081  -0.171  24.204  0.00  0.00    +0.000 C 
ATOM     19  H   UNL     1      89.939  -1.676  25.337  0.00  0.00    +0.000 HD
BRANCH  17  22
ATOM     20  N   UNL     1      89.349   0.139  28.943  0.00  0.00    +0.000 NA
ATOM     21  N   UNL     1      87.087  -0.317  28.254  0.00  0.00    +0.000 NA
ATOM     22  C   UNL     1      88.894  -0.547  26.682  0.00  0.00    +0.000 A 
ATOM     23  C   UNL     1      89.753  -0.164  27.692  0.00  0.00    +0.000 A 
ATOM     24  C   UNL     1      87.559  -0.606  27.024  0.00  0.00    +0.000 A 
ATOM     25  C   UNL     1      88.023   0.044  29.152  0.00  0.00    +0.000 A 
BRANCH  25  26
ATOM     26  O   UNL     1      87.575   0.347  30.417  0.00  0.00    +0.000 OA
BRANCH  26  27
ATOM     27  C   UNL     1      86.408   1.153  30.501  0.00  0.00    +0.000 C 
BRANCH  27  28
ATOM     28  C   UNL     1      86.725   2.400  31.305  0.00  0.00    +0.000 C 
BRANCH  28  29
ATOM     29  O   UNL     1      86.233   3.538  30.610  0.00  0.00    +0.000 OA
ATOM     30  C   UNL     1      86.685   4.746  31.204  0.00  0.00    +0.000 C 
ENDBRANCH  28  29
ENDBRANCH  27  28
ENDBRANCH  26  27
ENDBRANCH  25  26
ENDBRANCH  17  22
ENDBRANCH   5  18
TORSDOF 7
ENDMDL
MODEL 2
REMARK VINA RESULT:      -5.7      1.395      2.066
REMARK  Name = 168679856
REMARK  8 active torsions:
REMARK  status: ('A' for Active; 'I' for Inactive)
REMARK    1  A    between atoms: O_4  and  C_23
REMARK    2  A    between atoms: O_4  and  C_28
REMARK    3  A    between atoms: O_5  and  C_24
REMARK    4  A    between atoms: O_5  and  C_29
REMARK    5  A    between atoms: N_10  and  C_19
REMARK    6  A    between atoms: C_14  and  C_18
REMARK    7  A    between atoms: C_16  and  C_20
REMARK    8  A    between atoms: C_23  and  C_24
REMARK                            x       y       z     vdW  Elec       q    Type
REMARK                         _______ _______ _______ _____ _____    ______ ____
ROOT
ATOM      1  N   UNL     1      88.722  -1.448  19.532  0.00  0.00    +0.000 N 
ATOM      2  N   UNL     1      88.892  -0.893  21.786  0.00  0.00    +0.000 NA
ATOM      3  N   UNL     1      90.626  -2.145  20.674  0.00  0.00    +0.000 NA
ATOM      4  N   UNL     1      88.196  -1.778  17.400  0.00  0.00    +0.000 NA
ATOM      5  C   UNL     1      89.621  -0.961  22.919  0.00  0.00    +0.000 A 
ATOM      6  C   UNL     1      89.446  -1.497  20.717  0.00  0.00    +0.000 A 
ATOM      7  C   UNL     1      91.301  -2.174  21.842  0.00  0.00    +0.000 A 
ATOM      8  C   UNL     1      90.843  -1.593  23.007  0.00  0.00    +0.000 A 
ATOM      9  C   UNL     1      87.508  -0.848  19.350  0.00  0.00    +0.000 A 
ATOM     10  C   UNL     1      89.095  -1.992  18.335  0.00  0.00    +0.000 A 
ATOM     11  C   UNL     1      87.204  -1.064  18.027  0.00  0.00    +0.000 A 
ENDROOT
BRANCH   7  15
ATOM     12  F   UNL     1      93.011  -3.299  23.078  0.00  0.00    +0.000 F 
ATOM     13  F   UNL     1      92.606  -4.002  21.061  0.00  0.00    +0.000 F 
ATOM     14  F   UNL     1      93.648  -2.120  21.371  0.00  0.00    +0.000 F 
ATOM     15  C   UNL     1      92.615  -2.882  21.839  0.00  0.00    +0.000 C 
ENDBRANCH   7  15
BRANCH   5  18
ATOM     16  O   UNL     1      88.417   0.749  23.938  0.00  0.00    +0.000 OA
ATOM     17  N   UNL     1      89.211  -0.972  25.330  0.00  0.00    +0.000 N 
ATOM     18  C   UNL     1      89.027  -0.300  24.111  0.00  0.00    +0.000 C 
ATOM     19  H   UNL     1      89.743  -1.839  25.296  0.00  0.00    +0.000 HD
BRANCH  17  22
ATOM     20  N   UNL     1      86.931  -0.290  28.133  0.00  0.00    +0.000 NA
ATOM     21  N   UNL     1      89.193   0.170  28.824  0.00  0.00    +0.000 NA
ATOM     22  C   UNL     1      88.751  -0.607  26.591  0.00  0.00    +0.000 A 
ATOM     23  C   UNL     1      87.412  -0.637  26.921  0.00  0.00    +0.000 A 
ATOM     24  C   UNL     1      89.604  -0.191  27.592  0.00  0.00    +0.000 A 
ATOM     25  C   UNL     1      87.863   0.098  29.025  0.00  0.00    +0.000 A 
BRANCH  25  26
ATOM     26  O   UNL     1      87.409   0.458  30.272  0.00  0.00    +0.000 OA
BRANCH  26  27
ATOM     27  C   UNL     1      87.926  -0.278  31.372  0.00  0.00    +0.000 C 
BRANCH  27  28
ATOM     28  C   UNL     1      86.850  -1.214  31.889  0.00  0.00    +0.000 C 
BRANCH  28  29
ATOM     29  O   UNL     1      85.574  -0.643  31.631  0.00  0.00    +0.000 OA
ATOM     30  C   UNL     1      84.635  -1.629  31.224  0.00  0.00    +0.000 C 
ENDBRANCH  28  29
ENDBRANCH  27  28
ENDBRANCH  26  27
ENDBRANCH  25  26
ENDBRANCH  17  22
ENDBRANCH   5  18
TORSDOF 7
ENDMDL
MODEL 3
REMARK VINA RESULT:      -5.4      3.627      5.223
REMARK  Name = 168679856
REMARK  8 active torsions:
REMARK  status: ('A' for Active; 'I' for Inactive)
REMARK    1  A    between atoms: O_4  and  C_23
REMARK    2  A    between atoms: O_4  and  C_28
REMARK    3  A    between atoms: O_5  and  C_24
REMARK    4  A    between atoms: O_5  and  C_29
REMARK    5  A    between atoms: N_10  and  C_19
REMARK    6  A    between atoms: C_14  and  C_18
REMARK    7  A    between atoms: C_16  and  C_20
REMARK    8  A    between atoms: C_23  and  C_24
REMARK                            x       y       z     vdW  Elec       q    Type
REMARK                         _______ _______ _______ _____ _____    ______ ____
ROOT
ATOM      1  N   UNL     1      89.135  -2.995  16.943  0.00  0.00    +0.000 N 
ATOM      2  N   UNL     1      89.420  -1.580  18.769  0.00  0.00    +0.000 NA
ATOM      3  N   UNL     1      88.369  -0.807  16.742  0.00  0.00    +0.000 NA
ATOM      4  N   UNL     1      89.049  -4.629  15.442  0.00  0.00    +0.000 NA
ATOM      5  C   UNL     1      89.241  -0.348  19.287  0.00  0.00    +0.000 A 
ATOM      6  C   UNL     1      88.966  -1.738  17.511  0.00  0.00    +0.000 A 
ATOM      7  C   UNL     1      88.223   0.402  17.324  0.00  0.00    +0.000 A 
ATOM      8  C   UNL     1      88.643   0.692  18.606  0.00  0.00    +0.000 A 
ATOM      9  C   UNL     1      89.713  -4.080  17.539  0.00  0.00    +0.000 A 
ATOM     10  C   UNL     1      88.752  -3.372  15.687  0.00  0.00    +0.000 A 
ATOM     11  C   UNL     1      89.649  -5.076  16.594  0.00  0.00    +0.000 A 
ENDROOT
BRANCH   7  15
ATOM     12  F   UNL     1      86.734   0.970  15.542  0.00  0.00    +0.000 F 
ATOM     13  F   UNL     1      86.795   2.302  17.260  0.00  0.00    +0.000 F 
ATOM     14  F   UNL     1      88.444   2.270  15.844  0.00  0.00    +0.000 F 
ATOM     15  C   UNL     1      87.564   1.463  16.507  0.00  0.00    +0.000 C 
ENDBRANCH   7  15
BRANCH   5  18
ATOM     16  O   UNL     1      90.725   0.552  20.837  0.00  0.00    +0.000 OA
ATOM     17  N   UNL     1      88.985  -0.787  21.680  0.00  0.00    +0.000 N 
ATOM     18  C   UNL     1      89.734  -0.152  20.676  0.00  0.00    +0.000 C 
ATOM     19  H   UNL     1      88.185  -1.335  21.373  0.00  0.00    +0.000 HD
BRANCH  17  22
ATOM     20  N   UNL     1      88.667   0.135  25.225  0.00  0.00    +0.000 NA
ATOM     21  N   UNL     1      90.345  -1.580  25.002  0.00  0.00    +0.000 NA
ATOM     22  C   UNL     1      89.194  -0.761  23.055  0.00  0.00    +0.000 A 
ATOM     23  C   UNL     1      88.490   0.084  23.888  0.00  0.00    +0.000 A 
ATOM     24  C   UNL     1      90.117  -1.579  23.673  0.00  0.00    +0.000 A 
ATOM     25  C   UNL     1      89.596  -0.711  25.709  0.00  0.00    +0.000 A 
BRANCH  25  26
ATOM     26  O   UNL     1      89.802  -0.687  27.069  0.00  0.00    +0.000 OA
BRANCH  26  27
ATOM     27  C   UNL     1      88.678  -0.363  27.874  0.00  0.00    +0.000 C 
BRANCH  27  28
ATOM     28  C   UNL     1      89.158   0.318  29.142  0.00  0.00    +0.000 C 
BRANCH  28  29
ATOM     29  O   UNL     1      88.177   0.151  30.159  0.00  0.00    +0.000 OA
ATOM     30  C   UNL     1      86.905   0.619  29.736  0.00  0.00    +0.000 C 
ENDBRANCH  28  29
ENDBRANCH  27  28
ENDBRANCH  26  27
ENDBRANCH  25  26
ENDBRANCH  17  22
ENDBRANCH   5  18
TORSDOF 7
ENDMDL
MODEL 4
REMARK VINA RESULT:      -5.3      3.019      4.151
REMARK  Name = 168679856
REMARK  8 active torsions:
REMARK  status: ('A' for Active; 'I' for Inactive)
REMARK    1  A    between atoms: O_4  and  C_23
REMARK    2  A    between atoms: O_4  and  C_28
REMARK    3  A    between atoms: O_5  and  C_24
REMARK    4  A    between atoms: O_5  and  C_29
REMARK    5  A    between atoms: N_10  and  C_19
REMARK    6  A    between atoms: C_14  and  C_18
REMARK    7  A    between atoms: C_16  and  C_20
REMARK    8  A    between atoms: C_23  and  C_24
REMARK                            x       y       z     vdW  Elec       q    Type
REMARK                         _______ _______ _______ _____ _____    ______ ____
ROOT
ATOM      1  N   UNL     1      91.512  -1.902  23.391  0.00  0.00    +0.000 N 
ATOM      2  N   UNL     1      90.172  -1.332  25.207  0.00  0.00    +0.000 NA
ATOM      3  N   UNL     1      91.656  -3.230  25.295  0.00  0.00    +0.000 NA
ATOM      4  N   UNL     1      92.614  -2.115  21.475  0.00  0.00    +0.000 NA
ATOM      5  C   UNL     1      89.789  -1.620  26.468  0.00  0.00    +0.000 A 
ATOM      6  C   UNL     1      91.095  -2.166  24.690  0.00  0.00    +0.000 A 
ATOM      7  C   UNL     1      91.227  -3.458  26.555  0.00  0.00    +0.000 A 
ATOM      8  C   UNL     1      90.287  -2.679  27.198  0.00  0.00    +0.000 A 
ATOM      9  C   UNL     1      91.077  -0.881  22.593  0.00  0.00    +0.000 A 
ATOM     10  C   UNL     1      92.434  -2.615  22.677  0.00  0.00    +0.000 A 
ATOM     11  C   UNL     1      91.771  -1.033  21.417  0.00  0.00    +0.000 A 
ENDROOT
BRANCH   7  15
ATOM     12  F   UNL     1      90.893  -5.501  27.752  0.00  0.00    +0.000 F 
ATOM     13  F   UNL     1      92.637  -5.371  26.459  0.00  0.00    +0.000 F 
ATOM     14  F   UNL     1      92.591  -4.284  28.340  0.00  0.00    +0.000 F 
ATOM     15  C   UNL     1      91.824  -4.628  27.264  0.00  0.00    +0.000 C 
ENDBRANCH   7  15
BRANCH   5  18
ATOM     16  O   UNL     1      88.093  -0.038  26.289  0.00  0.00    +0.000 OA
ATOM     17  N   UNL     1      88.674  -0.739  28.459  0.00  0.00    +0.000 N 
ATOM     18  C   UNL     1      88.771  -0.712  27.058  0.00  0.00    +0.000 C 
ATOM     19  H   UNL     1      89.314  -1.361  28.947  0.00  0.00    +0.000 HD
BRANCH  17  22
ATOM     20  N   UNL     1      87.400   1.255  31.272  0.00  0.00    +0.000 NA
ATOM     21  N   UNL     1      85.606   0.847  29.717  0.00  0.00    +0.000 NA
ATOM     22  C   UNL     1      87.805  -0.023  29.274  0.00  0.00    +0.000 A 
ATOM     23  C   UNL     1      88.216   0.553  30.458  0.00  0.00    +0.000 A 
ATOM     24  C   UNL     1      86.476   0.159  28.950  0.00  0.00    +0.000 A 
ATOM     25  C   UNL     1      86.126   1.362  30.847  0.00  0.00    +0.000 A 
BRANCH  25  26
ATOM     26  O   UNL     1      85.266   2.071  31.653  0.00  0.00    +0.000 OA
BRANCH  26  27
ATOM     27  C   UNL     1      85.787   3.249  32.253  0.00  0.00    +0.000 C 
BRANCH  27  28
ATOM     28  C   UNL     1      85.030   4.451  31.722  0.00  0.00    +0.000 C 
BRANCH  28  29
ATOM     29  O   UNL     1      85.460   4.721  30.394  0.00  0.00    +0.000 OA
ATOM     30  C   UNL     1      86.592   5.579  30.377  0.00  0.00    +0.000 C 
ENDBRANCH  28  29
ENDBRANCH  27  28
ENDBRANCH  26  27
ENDBRANCH  25  26
ENDBRANCH  17  22
ENDBRANCH   5  18
TORSDOF 7
ENDMDL
MODEL 5
REMARK VINA RESULT:      -5.1      5.602     11.341
REMARK  Name = 168679856
REMARK  8 active torsions:
REMARK  status: ('A' for Active; 'I' for Inactive)
REMARK    1  A    between atoms: O_4  and  C_23
REMARK    2  A    between atoms: O_4  and  C_28
REMARK    3  A    between atoms: O_5  and  C_24
REMARK    4  A    between atoms: O_5  and  C_29
REMARK    5  A    between atoms: N_10  and  C_19
REMARK    6  A    between atoms: C_14  and  C_18
REMARK    7  A    between atoms: C_16  and  C_20
REMARK    8  A    between atoms: C_23  and  C_24
REMARK                            x       y       z     vdW  Elec       q    Type
REMARK                         _______ _______ _______ _____ _____    ______ ____
ROOT
ATOM      1  N   UNL     1      83.703   1.740  33.510  0.00  0.00    +0.000 N 
ATOM      2  N   UNL     1      85.373   1.074  32.031  0.00  0.00    +0.000 NA
ATOM      3  N   UNL     1      85.290   3.324  32.891  0.00  0.00    +0.000 NA
ATOM      4  N   UNL     1      81.974   1.984  34.882  0.00  0.00    +0.000 NA
ATOM      5  C   UNL     1      86.473   1.420  31.333  0.00  0.00    +0.000 A 
ATOM      6  C   UNL     1      84.840   2.060  32.778  0.00  0.00    +0.000 A 
ATOM      7  C   UNL     1      86.395   3.601  32.165  0.00  0.00    +0.000 A 
ATOM      8  C   UNL     1      87.035   2.679  31.362  0.00  0.00    +0.000 A 
ATOM      9  C   UNL     1      83.078   0.525  33.543  0.00  0.00    +0.000 A 
ATOM     10  C   UNL     1      83.005   2.583  34.328  0.00  0.00    +0.000 A 
ATOM     11  C   UNL     1      82.015   0.700  34.397  0.00  0.00    +0.000 A 
ENDROOT
BRANCH   7  15
ATOM     12  F   UNL     1      87.949   5.121  33.160  0.00  0.00    +0.000 F 
ATOM     13  F   UNL     1      87.425   5.445  31.074  0.00  0.00    +0.000 F 
ATOM     14  F   UNL     1      85.995   5.912  32.644  0.00  0.00    +0.000 F 
ATOM     15  C   UNL     1      86.928   4.991  32.261  0.00  0.00    +0.000 C 
ENDBRANCH   7  15
BRANCH   5  18
ATOM     16  O   UNL     1      87.043  -0.801  30.937  0.00  0.00    +0.000 OA
ATOM     17  N   UNL     1      87.613   0.760  29.271  0.00  0.00    +0.000 N 
ATOM     18  C   UNL     1      87.077   0.345  30.502  0.00  0.00    +0.000 C 
ATOM     19  H   UNL     1      87.556   1.755  29.063  0.00  0.00    +0.000 HD
BRANCH  17  22
ATOM     20  N   UNL     1      90.196  -0.906  27.256  0.00  0.00    +0.000 NA
ATOM     21  N   UNL     1      88.024  -1.471  26.379  0.00  0.00    +0.000 NA
ATOM     22  C   UNL     1      88.212  -0.020  28.289  0.00  0.00    +0.000 A 
ATOM     23  C   UNL     1      89.582  -0.158  28.195  0.00  0.00    +0.000 A 
ATOM     24  C   UNL     1      87.476  -0.706  27.345  0.00  0.00    +0.000 A 
ATOM     25  C   UNL     1      89.370  -1.527  26.392  0.00  0.00    +0.000 A 
BRANCH  25  26
ATOM     26  O   UNL     1      89.963  -2.299  25.421  0.00  0.00    +0.000 OA
BRANCH  26  27
ATOM     27  C   UNL     1      91.086  -1.735  24.758  0.00  0.00    +0.000 C 
BRANCH  27  28
ATOM     28  C   UNL     1      90.598  -0.807  23.662  0.00  0.00    +0.000 C 
BRANCH  28  29
ATOM     29  O   UNL     1      91.690  -0.475  22.814  0.00  0.00    +0.000 OA
ATOM     30  C   UNL     1      91.897  -1.469  21.821  0.00  0.00    +0.000 C 
ENDBRANCH  28  29
ENDBRANCH  27  28
ENDBRANCH  26  27
ENDBRANCH  25  26
ENDBRANCH  17  22
ENDBRANCH   5  18
TORSDOF 7
ENDMDL
MODEL 6
REMARK VINA RESULT:      -5.1      4.710     10.130
REMARK  Name = 168679856
REMARK  8 active torsions:
REMARK  status: ('A' for Active; 'I' for Inactive)
REMARK    1  A    between atoms: O_4  and  C_23
REMARK    2  A    between atoms: O_4  and  C_28
REMARK    3  A    between atoms: O_5  and  C_24
REMARK    4  A    between atoms: O_5  and  C_29
REMARK    5  A    between atoms: N_10  and  C_19
REMARK    6  A    between atoms: C_14  and  C_18
REMARK    7  A    between atoms: C_16  and  C_20
REMARK    8  A    between atoms: C_23  and  C_24
REMARK                            x       y       z     vdW  Elec       q    Type
REMARK                         _______ _______ _______ _____ _____    ______ ____
ROOT
ATOM      1  N   UNL     1      85.882   2.944  31.011  0.00  0.00    +0.000 N 
ATOM      2  N   UNL     1      86.574   1.290  29.527  0.00  0.00    +0.000 NA
ATOM      3  N   UNL     1      86.481   0.880  31.901  0.00  0.00    +0.000 NA
ATOM      4  N   UNL     1      85.178   4.756  32.085  0.00  0.00    +0.000 NA
ATOM      5  C   UNL     1      87.011   0.025  29.364  0.00  0.00    +0.000 A 
ATOM      6  C   UNL     1      86.332   1.646  30.804  0.00  0.00    +0.000 A 
ATOM      7  C   UNL     1      86.921  -0.374  31.663  0.00  0.00    +0.000 A 
ATOM      8  C   UNL     1      87.204  -0.861  30.403  0.00  0.00    +0.000 A 
ATOM      9  C   UNL     1      85.663   3.888  30.048  0.00  0.00    +0.000 A 
ATOM     10  C   UNL     1      85.578   3.511  32.217  0.00  0.00    +0.000 A 
ATOM     11  C   UNL     1      85.228   4.997  30.734  0.00  0.00    +0.000 A 
ENDROOT
BRANCH   7  15
ATOM     12  F   UNL     1      88.336  -1.159  33.423  0.00  0.00    +0.000 F 
ATOM     13  F   UNL     1      86.211  -0.982  33.849  0.00  0.00    +0.000 F 
ATOM     14  F   UNL     1      86.939  -2.586  32.576  0.00  0.00    +0.000 F 
ATOM     15  C   UNL     1      87.100  -1.258  32.852  0.00  0.00    +0.000 C 
ENDBRANCH   7  15
BRANCH   5  18
ATOM     16  O   UNL     1      86.383  -0.945  27.344  0.00  0.00    +0.000 OA
ATOM     17  N   UNL     1      88.564  -0.072  27.475  0.00  0.00    +0.000 N 
ATOM     18  C   UNL     1      87.285  -0.389  27.962  0.00  0.00    +0.000 C 
ATOM     19  H   UNL     1      89.194   0.396  28.123  0.00  0.00    +0.000 HD
BRANCH  17  22
ATOM     20  N   UNL     1      90.729  -1.358  24.797  0.00  0.00    +0.000 NA
ATOM     21  N   UNL     1      89.002   0.012  23.826  0.00  0.00    +0.000 NA
ATOM     22  C   UNL     1      89.085  -0.313  26.209  0.00  0.00    +0.000 A 
ATOM     23  C   UNL     1      90.198  -1.104  26.011  0.00  0.00    +0.000 A 
ATOM     24  C   UNL     1      88.523   0.224  25.069  0.00  0.00    +0.000 A 
ATOM     25  C   UNL     1      90.091  -0.777  23.763  0.00  0.00    +0.000 A 
BRANCH  25  26
ATOM     26  O   UNL     1      90.605  -1.016  22.510  0.00  0.00    +0.000 OA
BRANCH  26  27
ATOM     27  C   UNL     1      89.752  -0.732  21.410  0.00  0.00    +0.000 C 
BRANCH  27  28
ATOM     28  C   UNL     1      90.538   0.028  20.358  0.00  0.00    +0.000 C 
BRANCH  28  29
ATOM     29  O   UNL     1      89.798   0.040  19.144  0.00  0.00    +0.000 OA
ATOM     30  C   UNL     1      88.459   0.467  19.355  0.00  0.00    +0.000 C 
ENDBRANCH  28  29
ENDBRANCH  27  28
ENDBRANCH  26  27
ENDBRANCH  25  26
ENDBRANCH  17  22
ENDBRANCH   5  18
TORSDOF 7
ENDMDL
MODEL 7
REMARK VINA RESULT:      -5.1      2.557      3.743
REMARK  Name = 168679856
REMARK  8 active torsions:
REMARK  status: ('A' for Active; 'I' for Inactive)
REMARK    1  A    between atoms: O_4  and  C_23
REMARK    2  A    between atoms: O_4  and  C_28
REMARK    3  A    between atoms: O_5  and  C_24
REMARK    4  A    between atoms: O_5  and  C_29
REMARK    5  A    between atoms: N_10  and  C_19
REMARK    6  A    between atoms: C_14  and  C_18
REMARK    7  A    between atoms: C_16  and  C_20
REMARK    8  A    between atoms: C_23  and  C_24
REMARK                            x       y       z     vdW  Elec       q    Type
REMARK                         _______ _______ _______ _____ _____    ______ ____
ROOT
ATOM      1  N   UNL     1      90.395  -3.831  21.216  0.00  0.00    +0.000 N 
ATOM      2  N   UNL     1      89.507  -2.039  22.407  0.00  0.00    +0.000 NA
ATOM      3  N   UNL     1      89.501  -2.064  19.996  0.00  0.00    +0.000 NA
ATOM      4  N   UNL     1      91.324  -5.700  20.457  0.00  0.00    +0.000 NA
ATOM      5  C   UNL     1      88.905  -0.833  22.359  0.00  0.00    +0.000 A 
ATOM      6  C   UNL     1      89.772  -2.589  21.206  0.00  0.00    +0.000 A 
ATOM      7  C   UNL     1      88.898  -0.856  20.024  0.00  0.00    +0.000 A 
ATOM      8  C   UNL     1      88.572  -0.188  21.186  0.00  0.00    +0.000 A 
ATOM      9  C   UNL     1      90.761  -4.544  22.323  0.00  0.00    +0.000 A 
ATOM     10  C   UNL     1      90.753  -4.564  20.120  0.00  0.00    +0.000 A 
ATOM     11  C   UNL     1      91.332  -5.692  21.830  0.00  0.00    +0.000 A 
ENDROOT
BRANCH   7  15
ATOM     12  F   UNL     1      89.101  -0.918  17.642  0.00  0.00    +0.000 F 
ATOM     13  F   UNL     1      87.235  -0.168  18.469  0.00  0.00    +0.000 F 
ATOM     14  F   UNL     1      89.039   1.042  18.572  0.00  0.00    +0.000 F 
ATOM     15  C   UNL     1      88.578  -0.237  18.704  0.00  0.00    +0.000 C 
ENDBRANCH   7  15
BRANCH   5  18
ATOM     16  O   UNL     1      88.100   0.910  23.673  0.00  0.00    +0.000 OA
ATOM     17  N   UNL     1      88.909  -0.989  24.800  0.00  0.00    +0.000 N 
ATOM     18  C   UNL     1      88.603  -0.208  23.674  0.00  0.00    +0.000 C 
ATOM     19  H   UNL     1      89.322  -1.902  24.622  0.00  0.00    +0.000 HD
BRANCH  17  22
ATOM     20  N   UNL     1      87.242  -0.410  28.026  0.00  0.00    +0.000 NA
ATOM     21  N   UNL     1      89.605  -0.009  28.274  0.00  0.00    +0.000 NA
ATOM     22  C   UNL     1      88.714  -0.677  26.141  0.00  0.00    +0.000 A 
ATOM     23  C   UNL     1      87.466  -0.707  26.729  0.00  0.00    +0.000 A 
ATOM     24  C   UNL     1      89.757  -0.318  26.970  0.00  0.00    +0.000 A 
ATOM     25  C   UNL     1      88.339  -0.075  28.731  0.00  0.00    +0.000 A 
BRANCH  25  26
ATOM     26  O   UNL     1      88.148   0.233  30.057  0.00  0.00    +0.000 OA
BRANCH  26  27
ATOM     27  C   UNL     1      86.867  -0.060  30.598  0.00  0.00    +0.000 C 
BRANCH  27  28
ATOM     28  C   UNL     1      86.274   1.209  31.180  0.00  0.00    +0.000 C 
BRANCH  28  29
ATOM     29  O   UNL     1      87.322   2.134  31.442  0.00  0.00    +0.000 OA
ATOM     30  C   UNL     1      86.828   3.461  31.552  0.00  0.00    +0.000 C 
ENDBRANCH  28  29
ENDBRANCH  27  28
ENDBRANCH  26  27
ENDBRANCH  25  26
ENDBRANCH  17  22
ENDBRANCH   5  18
TORSDOF 7
ENDMDL
MODEL 8
REMARK VINA RESULT:      -5.1      4.936     10.227
REMARK  Name = 168679856
REMARK  8 active torsions:
REMARK  status: ('A' for Active; 'I' for Inactive)
REMARK    1  A    between atoms: O_4  and  C_23
REMARK    2  A    between atoms: O_4  and  C_28
REMARK    3  A    between atoms: O_5  and  C_24
REMARK    4  A    between atoms: O_5  and  C_29
REMARK    5  A    between atoms: N_10  and  C_19
REMARK    6  A    between atoms: C_14  and  C_18
REMARK    7  A    between atoms: C_16  and  C_20
REMARK    8  A    between atoms: C_23  and  C_24
REMARK                            x       y       z     vdW  Elec       q    Type
REMARK                         _______ _______ _______ _____ _____    ______ ____
ROOT
ATOM      1  N   UNL     1      85.870   2.944  31.017  0.00  0.00    +0.000 N 
ATOM      2  N   UNL     1      86.547   1.283  29.533  0.00  0.00    +0.000 NA
ATOM      3  N   UNL     1      86.449   0.874  31.907  0.00  0.00    +0.000 NA
ATOM      4  N   UNL     1      85.182   4.763  32.090  0.00  0.00    +0.000 NA
ATOM      5  C   UNL     1      86.972   0.014  29.370  0.00  0.00    +0.000 A 
ATOM      6  C   UNL     1      86.308   1.642  30.810  0.00  0.00    +0.000 A 
ATOM      7  C   UNL     1      86.877  -0.384  31.669  0.00  0.00    +0.000 A 
ATOM      8  C   UNL     1      87.156  -0.874  30.409  0.00  0.00    +0.000 A 
ATOM      9  C   UNL     1      85.660   3.890  30.053  0.00  0.00    +0.000 A 
ATOM     10  C   UNL     1      85.570   3.514  32.223  0.00  0.00    +0.000 A 
ATOM     11  C   UNL     1      85.236   5.003  30.739  0.00  0.00    +0.000 A 
ENDROOT
BRANCH   7  15
ATOM     12  F   UNL     1      86.141  -1.028  33.850  0.00  0.00    +0.000 F 
ATOM     13  F   UNL     1      86.910  -2.592  32.551  0.00  0.00    +0.000 F 
ATOM     14  F   UNL     1      88.270  -1.158  33.456  0.00  0.00    +0.000 F 
ATOM     15  C   UNL     1      87.047  -1.270  32.858  0.00  0.00    +0.000 C 
ENDBRANCH   7  15
BRANCH   5  18
ATOM     16  O   UNL     1      86.374  -1.046  27.386  0.00  0.00    +0.000 OA
ATOM     17  N   UNL     1      88.474   0.013  27.439  0.00  0.00    +0.000 N 
ATOM     18  C   UNL     1      87.241  -0.403  27.968  0.00  0.00    +0.000 C 
ATOM     19  H   UNL     1      89.079   0.546  28.061  0.00  0.00    +0.000 HD
BRANCH  17  22
ATOM     20  N   UNL     1      88.750  -0.036  23.774  0.00  0.00    +0.000 NA
ATOM     21  N   UNL     1      90.724  -1.035  24.727  0.00  0.00    +0.000 NA
ATOM     22  C   UNL     1      88.980  -0.207  26.163  0.00  0.00    +0.000 A 
ATOM     23  C   UNL     1      88.289   0.162  25.026  0.00  0.00    +0.000 A 
ATOM     24  C   UNL     1      90.204  -0.807  25.950  0.00  0.00    +0.000 A 
ATOM     25  C   UNL     1      89.956  -0.630  23.698  0.00  0.00    +0.000 A 
BRANCH  25  26
ATOM     26  O   UNL     1      90.457  -0.846  22.435  0.00  0.00    +0.000 OA
BRANCH  26  27
ATOM     27  C   UNL     1      91.826  -0.524  22.232  0.00  0.00    +0.000 C 
BRANCH  27  28
ATOM     28  C   UNL     1      92.507  -1.682  21.528  0.00  0.00    +0.000 C 
BRANCH  28  29
ATOM     29  O   UNL     1      92.375  -2.852  22.324  0.00  0.00    +0.000 OA
ATOM     30  C   UNL     1      92.040  -3.984  21.534  0.00  0.00    +0.000 C 
ENDBRANCH  28  29
ENDBRANCH  27  28
ENDBRANCH  26  27
ENDBRANCH  25  26
ENDBRANCH  17  22
ENDBRANCH   5  18
TORSDOF 7
ENDMDL
MODEL 9
REMARK VINA RESULT:      -5.0      3.684      5.763
REMARK  Name = 168679856
REMARK  8 active torsions:
REMARK  status: ('A' for Active; 'I' for Inactive)
REMARK    1  A    between atoms: O_4  and  C_23
REMARK    2  A    between atoms: O_4  and  C_28
REMARK    3  A    between atoms: O_5  and  C_24
REMARK    4  A    between atoms: O_5  and  C_29
REMARK    5  A    between atoms: N_10  and  C_19
REMARK    6  A    between atoms: C_14  and  C_18
REMARK    7  A    between atoms: C_16  and  C_20
REMARK    8  A    between atoms: C_23  and  C_24
REMARK                            x       y       z     vdW  Elec       q    Type
REMARK                         _______ _______ _______ _____ _____    ______ ____
ROOT
ATOM      1  N   UNL     1      90.963  -3.206  26.221  0.00  0.00    +0.000 N 
ATOM      2  N   UNL     1      89.749  -1.579  27.357  0.00  0.00    +0.000 NA
ATOM      3  N   UNL     1      89.727  -1.700  24.950  0.00  0.00    +0.000 NA
ATOM      4  N   UNL     1      92.238  -4.884  25.517  0.00  0.00    +0.000 NA
ATOM      5  C   UNL     1      88.920  -0.518  27.274  0.00  0.00    +0.000 A 
ATOM      6  C   UNL     1      90.108  -2.113  26.174  0.00  0.00    +0.000 A 
ATOM      7  C   UNL     1      88.898  -0.635  24.942  0.00  0.00    +0.000 A 
ATOM      8  C   UNL     1      88.456   0.001  26.084  0.00  0.00    +0.000 A 
ATOM      9  C   UNL     1      91.473  -3.788  27.348  0.00  0.00    +0.000 A 
ATOM     10  C   UNL     1      91.451  -3.898  25.147  0.00  0.00    +0.000 A 
ATOM     11  C   UNL     1      92.255  -4.821  26.888  0.00  0.00    +0.000 A 
ENDROOT
BRANCH   7  15
ATOM     12  F   UNL     1      87.744   1.022  23.663  0.00  0.00    +0.000 F 
ATOM     13  F   UNL     1      89.493   0.099  22.760  0.00  0.00    +0.000 F 
ATOM     14  F   UNL     1      87.640  -1.022  22.942  0.00  0.00    +0.000 F 
ATOM     15  C   UNL     1      88.450  -0.145  23.605  0.00  0.00    +0.000 C 
ENDBRANCH   7  15
BRANCH   5  18
ATOM     16  O   UNL     1      89.396   0.380  29.367  0.00  0.00    +0.000 OA
ATOM     17  N   UNL     1      87.131   0.285  28.737  0.00  0.00    +0.000 N 
ATOM     18  C   UNL     1      88.511   0.087  28.569  0.00  0.00    +0.000 C 
ATOM     19  H   UNL     1      86.532  -0.015  27.970  0.00  0.00    +0.000 HD
BRANCH  17  22
ATOM     20  N   UNL     1      85.232   2.668  30.793  0.00  0.00    +0.000 NA
ATOM     21  N   UNL     1      85.723   0.708  32.106  0.00  0.00    +0.000 NA
ATOM     22  C   UNL     1      86.469   0.847  29.823  0.00  0.00    +0.000 A 
ATOM     23  C   UNL     1      85.882   2.094  29.760  0.00  0.00    +0.000 A 
ATOM     24  C   UNL     1      86.357   0.193  31.033  0.00  0.00    +0.000 A 
ATOM     25  C   UNL     1      85.190   1.931  31.920  0.00  0.00    +0.000 A 
BRANCH  25  26
ATOM     26  O   UNL     1      84.534   2.486  32.994  0.00  0.00    +0.000 OA
BRANCH  26  27
ATOM     27  C   UNL     1      84.715   3.881  33.196  0.00  0.00    +0.000 C 
BRANCH  27  28
ATOM     28  C   UNL     1      85.834   4.094  34.199  0.00  0.00    +0.000 C 
BRANCH  28  29
ATOM     29  O   UNL     1      86.339   5.415  34.057  0.00  0.00    +0.000 OA
ATOM     30  C   UNL     1      87.759   5.428  34.021  0.00  0.00    +0.000 C 
ENDBRANCH  28  29
ENDBRANCH  27  28
ENDBRANCH  26  27
ENDBRANCH  25  26
ENDBRANCH  17  22
ENDBRANCH   5  18
TORSDOF 7
ENDMDL
