MODEL 1
REMARK VINA RESULT:      -5.9      0.000      0.000
REMARK  Name = 441667
REMARK  12 active torsions:
REMARK  status: ('A' for Active; 'I' for Inactive)
REMARK    1  A    between atoms: O_2  and  C_16
REMARK    2  A    between atoms: O_2  and  C_18
REMARK    3  A    between atoms: O_3  and  C_12
REMARK    4  A    between atoms: O_4  and  C_13
REMARK    5  A    between atoms: O_5  and  C_14
REMARK    6  A    between atoms: O_6  and  C_17
REMARK    7  A    between atoms: O_8  and  C_24
REMARK    8  A    between atoms: O_9  and  C_29
REMARK    9  A    between atoms: O_10  and  C_30
REMARK   10  A    between atoms: O_11  and  C_32
REMARK   11  A    between atoms: C_15  and  C_17
REMARK   12  A    between atoms: C_19  and  C_23
REMARK                            x       y       z     vdW  Elec       q    Type
REMARK                         _______ _______ _______ _____ _____    ______ ____
ROOT
ATOM      1  O   UNL     1      88.510  -2.175  23.763  0.00  0.00    +0.000 OA
ATOM      2  C   UNL     1      88.044  -1.575  21.406  0.00  0.00    +0.000 A 
ATOM      3  C   UNL     1      88.904  -2.074  22.524  0.00  0.00    +0.000 A 
ATOM      4  C   UNL     1      86.810  -1.169  21.732  0.00  0.00    +0.000 A 
ATOM      5  C   UNL     1      86.348  -1.231  23.114  0.00  0.00    +0.000 A 
ATOM      6  C   UNL     1      87.210  -1.745  24.087  0.00  0.00    +0.000 A 
ATOM      7  C   UNL     1      85.067  -0.806  23.480  0.00  0.00    +0.000 A 
ATOM      8  C   UNL     1      86.797  -1.834  25.417  0.00  0.00    +0.000 A 
ATOM      9  C   UNL     1      84.655  -0.895  24.811  0.00  0.00    +0.000 A 
ATOM     10  C   UNL     1      85.518  -1.409  25.778  0.00  0.00    +0.000 A 
ENDROOT
BRANCH   3  11
ATOM     11  C   UNL     1      90.282  -2.505  22.188  0.00  0.00    +0.000 A 
ATOM     12  C   UNL     1      90.504  -3.794  21.716  0.00  0.00    +0.000 A 
ATOM     13  C   UNL     1      91.338  -1.615  22.347  0.00  0.00    +0.000 A 
ATOM     14  C   UNL     1      91.801  -4.198  21.399  0.00  0.00    +0.000 A 
ATOM     15  C   UNL     1      92.635  -2.020  22.029  0.00  0.00    +0.000 A 
ATOM     16  C   UNL     1      92.866  -3.311  21.556  0.00  0.00    +0.000 A 
BRANCH  14  17
ATOM     17  O   UNL     1      92.014  -5.462  20.937  0.00  0.00    +0.000 OA
ATOM     18  H   UNL     1      91.154  -5.845  20.689  0.00  0.00    +0.000 HD
ENDBRANCH  14  17
BRANCH  16  19
ATOM     19  O   UNL     1      94.137  -3.695  21.251  0.00  0.00    +0.000 OA
ATOM     20  H   UNL     1      94.571  -4.025  22.056  0.00  0.00    +0.000 HD
ENDBRANCH  16  19
ENDBRANCH   3  11
BRANCH   7  21
ATOM     21  O   UNL     1      84.192  -0.302  22.563  0.00  0.00    +0.000 OA
ATOM     22  H   UNL     1      83.337  -0.756  22.625  0.00  0.00    +0.000 HD
ENDBRANCH   7  21
BRANCH  10  23
ATOM     23  O   UNL     1      85.114  -1.495  27.074  0.00  0.00    +0.000 OA
ATOM     24  H   UNL     1      84.467  -0.790  27.251  0.00  0.00    +0.000 HD
ENDBRANCH  10  23
BRANCH   2  25
ATOM     25  O   UNL     1      88.506  -1.596  20.110  0.00  0.00    +0.000 OA
BRANCH  25  31
ATOM     26  O   UNL     1      87.130  -1.768  18.234  0.00  0.00    +0.000 OA
ATOM     27  C   UNL     1      87.624   0.969  17.515  0.00  0.00    +0.000 C 
ATOM     28  C   UNL     1      86.965  -0.024  16.557  0.00  0.00    +0.000 C 
ATOM     29  C   UNL     1      88.440   0.246  18.586  0.00  0.00    +0.000 C 
ATOM     30  C   UNL     1      86.230  -1.119  17.333  0.00  0.00    +0.000 C 
ATOM     31  C   UNL     1      87.637  -0.883  19.230  0.00  0.00    +0.000 C 
BRANCH  27  32
ATOM     32  O   UNL     1      88.485   1.815  16.750  0.00  0.00    +0.000 OA
ATOM     33  H   UNL     1      89.243   1.283  16.450  0.00  0.00    +0.000 HD
ENDBRANCH  27  32
BRANCH  28  34
ATOM     34  O   UNL     1      86.038   0.668  15.725  0.00  0.00    +0.000 OA
ATOM     35  H   UNL     1      85.389   1.105  16.301  0.00  0.00    +0.000 HD
ENDBRANCH  28  34
BRANCH  29  36
ATOM     36  O   UNL     1      88.807   1.173  19.609  0.00  0.00    +0.000 OA
ATOM     37  H   UNL     1      88.564   0.776  20.462  0.00  0.00    +0.000 HD
ENDBRANCH  29  36
BRANCH  30  38
ATOM     38  C   UNL     1      85.663  -2.187  16.401  0.00  0.00    +0.000 C 
BRANCH  38  39
ATOM     39  O   UNL     1      84.433  -1.720  15.878  0.00  0.00    +0.000 OA
ATOM     40  H   UNL     1      84.226  -0.876  16.316  0.00  0.00    +0.000 HD
ENDBRANCH  38  39
ENDBRANCH  30  38
ENDBRANCH  25  31
ENDBRANCH   2  25
TORSDOF 12
ENDMDL
MODEL 2
REMARK VINA RESULT:      -5.8      1.527      1.898
REMARK  Name = 441667
REMARK  12 active torsions:
REMARK  status: ('A' for Active; 'I' for Inactive)
REMARK    1  A    between atoms: O_2  and  C_16
REMARK    2  A    between atoms: O_2  and  C_18
REMARK    3  A    between atoms: O_3  and  C_12
REMARK    4  A    between atoms: O_4  and  C_13
REMARK    5  A    between atoms: O_5  and  C_14
REMARK    6  A    between atoms: O_6  and  C_17
REMARK    7  A    between atoms: O_8  and  C_24
REMARK    8  A    between atoms: O_9  and  C_29
REMARK    9  A    between atoms: O_10  and  C_30
REMARK   10  A    between atoms: O_11  and  C_32
REMARK   11  A    between atoms: C_15  and  C_17
REMARK   12  A    between atoms: C_19  and  C_23
REMARK                            x       y       z     vdW  Elec       q    Type
REMARK                         _______ _______ _______ _____ _____    ______ ____
ROOT
ATOM      1  O   UNL     1      88.601  -2.646  23.682  0.00  0.00    +0.000 OA
ATOM      2  C   UNL     1      88.549  -0.974  21.855  0.00  0.00    +0.000 A 
ATOM      3  C   UNL     1      89.178  -2.060  22.671  0.00  0.00    +0.000 A 
ATOM      4  C   UNL     1      87.332  -0.564  22.238  0.00  0.00    +0.000 A 
ATOM      5  C   UNL     1      86.671  -1.170  23.388  0.00  0.00    +0.000 A 
ATOM      6  C   UNL     1      87.322  -2.203  24.069  0.00  0.00    +0.000 A 
ATOM      7  C   UNL     1      85.404  -0.754  23.810  0.00  0.00    +0.000 A 
ATOM      8  C   UNL     1      86.713  -2.817  25.164  0.00  0.00    +0.000 A 
ATOM      9  C   UNL     1      84.797  -1.369  24.907  0.00  0.00    +0.000 A 
ATOM     10  C   UNL     1      85.450  -2.399  25.582  0.00  0.00    +0.000 A 
ENDROOT
BRANCH   3  11
ATOM     11  C   UNL     1      90.535  -2.509  22.279  0.00  0.00    +0.000 A 
ATOM     12  C   UNL     1      90.704  -3.760  21.697  0.00  0.00    +0.000 A 
ATOM     13  C   UNL     1      91.626  -1.675  22.497  0.00  0.00    +0.000 A 
ATOM     14  C   UNL     1      91.982  -4.183  21.328  0.00  0.00    +0.000 A 
ATOM     15  C   UNL     1      92.903  -2.098  22.128  0.00  0.00    +0.000 A 
ATOM     16  C   UNL     1      93.080  -3.352  21.544  0.00  0.00    +0.000 A 
BRANCH  14  17
ATOM     17  O   UNL     1      92.142  -5.409  20.758  0.00  0.00    +0.000 OA
ATOM     18  H   UNL     1      91.262  -5.810  20.642  0.00  0.00    +0.000 HD
ENDBRANCH  14  17
BRANCH  16  19
ATOM     19  O   UNL     1      94.333  -3.754  21.189  0.00  0.00    +0.000 OA
ATOM     20  H   UNL     1      94.444  -3.635  20.230  0.00  0.00    +0.000 HD
ENDBRANCH  16  19
ENDBRANCH   3  11
BRANCH   7  21
ATOM     21  O   UNL     1      84.731   0.247  23.174  0.00  0.00    +0.000 OA
ATOM     22  H   UNL     1      85.147   0.446  22.321  0.00  0.00    +0.000 HD
ENDBRANCH   7  21
BRANCH  10  23
ATOM     23  O   UNL     1      84.855  -2.997  26.650  0.00  0.00    +0.000 OA
ATOM     24  H   UNL     1      85.545  -3.331  27.250  0.00  0.00    +0.000 HD
ENDBRANCH  10  23
BRANCH   2  25
ATOM     25  O   UNL     1      89.189  -0.479  20.742  0.00  0.00    +0.000 OA
BRANCH  25  31
ATOM     26  O   UNL     1      89.317  -2.135  19.104  0.00  0.00    +0.000 OA
ATOM     27  C   UNL     1      88.224  -0.373  17.116  0.00  0.00    +0.000 C 
ATOM     28  C   UNL     1      88.889  -1.702  16.757  0.00  0.00    +0.000 C 
ATOM     29  C   UNL     1      88.689   0.127  18.484  0.00  0.00    +0.000 C 
ATOM     30  C   UNL     1      88.768  -2.699  17.911  0.00  0.00    +0.000 C 
ATOM     31  C   UNL     1      88.608  -0.977  19.537  0.00  0.00    +0.000 C 
BRANCH  27  32
ATOM     32  O   UNL     1      88.576   0.583  16.114  0.00  0.00    +0.000 OA
ATOM     33  H   UNL     1      87.755   0.909  15.706  0.00  0.00    +0.000 HD
ENDBRANCH  27  32
BRANCH  28  34
ATOM     34  O   UNL     1      88.264  -2.245  15.597  0.00  0.00    +0.000 OA
ATOM     35  H   UNL     1      87.796  -3.053  15.862  0.00  0.00    +0.000 HD
ENDBRANCH  28  34
BRANCH  29  36
ATOM     36  O   UNL     1      87.854   1.207  18.903  0.00  0.00    +0.000 OA
ATOM     37  H   UNL     1      88.412   1.831  19.398  0.00  0.00    +0.000 HD
ENDBRANCH  29  36
BRANCH  30  38
ATOM     38  C   UNL     1      89.525  -3.992  17.622  0.00  0.00    +0.000 C 
BRANCH  38  39
ATOM     39  O   UNL     1      90.605  -3.697  16.754  0.00  0.00    +0.000 OA
ATOM     40  H   UNL     1      91.419  -4.027  17.173  0.00  0.00    +0.000 HD
ENDBRANCH  38  39
ENDBRANCH  30  38
ENDBRANCH  25  31
ENDBRANCH   2  25
TORSDOF 12
ENDMDL
MODEL 3
REMARK VINA RESULT:      -5.4      1.722      2.179
REMARK  Name = 441667
REMARK  12 active torsions:
REMARK  status: ('A' for Active; 'I' for Inactive)
REMARK    1  A    between atoms: O_2  and  C_16
REMARK    2  A    between atoms: O_2  and  C_18
REMARK    3  A    between atoms: O_3  and  C_12
REMARK    4  A    between atoms: O_4  and  C_13
REMARK    5  A    between atoms: O_5  and  C_14
REMARK    6  A    between atoms: O_6  and  C_17
REMARK    7  A    between atoms: O_8  and  C_24
REMARK    8  A    between atoms: O_9  and  C_29
REMARK    9  A    between atoms: O_10  and  C_30
REMARK   10  A    between atoms: O_11  and  C_32
REMARK   11  A    between atoms: C_15  and  C_17
REMARK   12  A    between atoms: C_19  and  C_23
REMARK                            x       y       z     vdW  Elec       q    Type
REMARK                         _______ _______ _______ _____ _____    ______ ____
ROOT
ATOM      1  O   UNL     1      88.757  -3.970  24.270  0.00  0.00    +0.000 OA
ATOM      2  C   UNL     1      88.461  -1.813  23.089  0.00  0.00    +0.000 A 
ATOM      3  C   UNL     1      89.217  -3.047  23.473  0.00  0.00    +0.000 A 
ATOM      4  C   UNL     1      87.256  -1.648  23.650  0.00  0.00    +0.000 A 
ATOM      5  C   UNL     1      86.724  -2.641  24.576  0.00  0.00    +0.000 A 
ATOM      6  C   UNL     1      87.488  -3.780  24.849  0.00  0.00    +0.000 A 
ATOM      7  C   UNL     1      85.472  -2.487  25.179  0.00  0.00    +0.000 A 
ATOM      8  C   UNL     1      87.005  -4.759  25.719  0.00  0.00    +0.000 A 
ATOM      9  C   UNL     1      84.991  -3.467  26.049  0.00  0.00    +0.000 A 
ATOM     10  C   UNL     1      85.756  -4.602  26.318  0.00  0.00    +0.000 A 
ENDROOT
BRANCH   3  11
ATOM     11  C   UNL     1      90.564  -3.235  22.883  0.00  0.00    +0.000 A 
ATOM     12  C   UNL     1      90.689  -3.825  21.631  0.00  0.00    +0.000 A 
ATOM     13  C   UNL     1      91.688  -2.819  23.588  0.00  0.00    +0.000 A 
ATOM     14  C   UNL     1      91.957  -4.001  21.075  0.00  0.00    +0.000 A 
ATOM     15  C   UNL     1      92.955  -2.996  23.032  0.00  0.00    +0.000 A 
ATOM     16  C   UNL     1      93.090  -3.587  21.776  0.00  0.00    +0.000 A 
BRANCH  14  17
ATOM     17  O   UNL     1      92.075  -4.580  19.848  0.00  0.00    +0.000 OA
ATOM     18  H   UNL     1      91.772  -3.941  19.179  0.00  0.00    +0.000 HD
ENDBRANCH  14  17
BRANCH  16  19
ATOM     19  O   UNL     1      94.333  -3.755  21.245  0.00  0.00    +0.000 OA
ATOM     20  H   UNL     1      94.497  -4.705  21.117  0.00  0.00    +0.000 HD
ENDBRANCH  16  19
ENDBRANCH   3  11
BRANCH   7  21
ATOM     21  O   UNL     1      84.692  -1.395  24.939  0.00  0.00    +0.000 OA
ATOM     22  H   UNL     1      83.936  -1.378  25.546  0.00  0.00    +0.000 HD
ENDBRANCH   7  21
BRANCH  10  23
ATOM     23  O   UNL     1      85.284  -5.556  27.166  0.00  0.00    +0.000 OA
ATOM     24  H   UNL     1      85.997  -5.818  27.774  0.00  0.00    +0.000 HD
ENDBRANCH  10  23
BRANCH   2  25
ATOM     25  O   UNL     1      88.981  -0.939  22.162  0.00  0.00    +0.000 OA
BRANCH  25  31
ATOM     26  O   UNL     1      87.833  -2.091  20.489  0.00  0.00    +0.000 OA
ATOM     27  C   UNL     1      88.058   0.132  18.685  0.00  0.00    +0.000 C 
ATOM     28  C   UNL     1      87.625  -1.259  18.222  0.00  0.00    +0.000 C 
ATOM     29  C   UNL     1      88.844   0.060  19.994  0.00  0.00    +0.000 C 
ATOM     30  C   UNL     1      86.956  -2.027  19.363  0.00  0.00    +0.000 C 
ATOM     31  C   UNL     1      88.124  -0.803  21.028  0.00  0.00    +0.000 C 
BRANCH  27  32
ATOM     32  O   UNL     1      88.881   0.701  17.665  0.00  0.00    +0.000 OA
ATOM     33  H   UNL     1      88.854   0.113  16.891  0.00  0.00    +0.000 HD
ENDBRANCH  27  32
BRANCH  28  34
ATOM     34  O   UNL     1      86.709  -1.132  17.137  0.00  0.00    +0.000 OA
ATOM     35  H   UNL     1      86.337  -2.012  16.958  0.00  0.00    +0.000 HD
ENDBRANCH  28  34
BRANCH  29  36
ATOM     36  O   UNL     1      88.989   1.375  20.532  0.00  0.00    +0.000 OA
ATOM     37  H   UNL     1      88.179   1.575  21.033  0.00  0.00    +0.000 HD
ENDBRANCH  29  36
BRANCH  30  38
ATOM     38  C   UNL     1      86.621  -3.460  18.959  0.00  0.00    +0.000 C 
BRANCH  38  39
ATOM     39  O   UNL     1      87.484  -3.845  17.905  0.00  0.00    +0.000 OA
ATOM     40  H   UNL     1      88.284  -3.294  17.963  0.00  0.00    +0.000 HD
ENDBRANCH  38  39
ENDBRANCH  30  38
ENDBRANCH  25  31
ENDBRANCH   2  25
TORSDOF 12
ENDMDL
MODEL 4
REMARK VINA RESULT:      -5.4      2.666      5.971
REMARK  Name = 441667
REMARK  12 active torsions:
REMARK  status: ('A' for Active; 'I' for Inactive)
REMARK    1  A    between atoms: O_2  and  C_16
REMARK    2  A    between atoms: O_2  and  C_18
REMARK    3  A    between atoms: O_3  and  C_12
REMARK    4  A    between atoms: O_4  and  C_13
REMARK    5  A    between atoms: O_5  and  C_14
REMARK    6  A    between atoms: O_6  and  C_17
REMARK    7  A    between atoms: O_8  and  C_24
REMARK    8  A    between atoms: O_9  and  C_29
REMARK    9  A    between atoms: O_10  and  C_30
REMARK   10  A    between atoms: O_11  and  C_32
REMARK   11  A    between atoms: C_15  and  C_17
REMARK   12  A    between atoms: C_19  and  C_23
REMARK                            x       y       z     vdW  Elec       q    Type
REMARK                         _______ _______ _______ _____ _____    ______ ____
ROOT
ATOM      1  O   UNL     1      86.040  -1.286  26.231  0.00  0.00    +0.000 OA
ATOM      2  C   UNL     1      88.182  -2.021  25.230  0.00  0.00    +0.000 A 
ATOM      3  C   UNL     1      86.691  -1.908  25.289  0.00  0.00    +0.000 A 
ATOM      4  C   UNL     1      88.866  -1.482  26.248  0.00  0.00    +0.000 A 
ATOM      5  C   UNL     1      88.169  -0.811  27.340  0.00  0.00    +0.000 A 
ATOM      6  C   UNL     1      86.775  -0.724  27.291  0.00  0.00    +0.000 A 
ATOM      7  C   UNL     1      88.861  -0.246  28.416  0.00  0.00    +0.000 A 
ATOM      8  C   UNL     1      86.075  -0.076  28.310  0.00  0.00    +0.000 A 
ATOM      9  C   UNL     1      88.159   0.401  29.435  0.00  0.00    +0.000 A 
ATOM     10  C   UNL     1      86.768   0.486  29.382  0.00  0.00    +0.000 A 
ENDROOT
BRANCH   3  11
ATOM     11  C   UNL     1      85.915  -2.521  24.185  0.00  0.00    +0.000 A 
ATOM     12  C   UNL     1      85.466  -1.727  23.136  0.00  0.00    +0.000 A 
ATOM     13  C   UNL     1      85.645  -3.885  24.210  0.00  0.00    +0.000 A 
ATOM     14  C   UNL     1      84.736  -2.306  22.097  0.00  0.00    +0.000 A 
ATOM     15  C   UNL     1      84.915  -4.462  23.170  0.00  0.00    +0.000 A 
ATOM     16  C   UNL     1      84.461  -3.673  22.114  0.00  0.00    +0.000 A 
BRANCH  14  17
ATOM     17  O   UNL     1      84.297  -1.524  21.071  0.00  0.00    +0.000 OA
ATOM     18  H   UNL     1      83.558  -1.982  20.633  0.00  0.00    +0.000 HD
ENDBRANCH  14  17
BRANCH  16  19
ATOM     19  O   UNL     1      83.748  -4.249  21.106  0.00  0.00    +0.000 OA
ATOM     20  H   UNL     1      83.192  -4.957  21.475  0.00  0.00    +0.000 HD
ENDBRANCH  16  19
ENDBRANCH   3  11
BRANCH   7  21
ATOM     21  O   UNL     1      90.220  -0.305  28.502  0.00  0.00    +0.000 OA
ATOM     22  H   UNL     1      90.563  -1.038  27.966  0.00  0.00    +0.000 HD
ENDBRANCH   7  21
BRANCH  10  23
ATOM     23  O   UNL     1      86.087   1.118  30.376  0.00  0.00    +0.000 OA
ATOM     24  H   UNL     1      86.238   0.644  31.212  0.00  0.00    +0.000 HD
ENDBRANCH  10  23
BRANCH   2  25
ATOM     25  O   UNL     1      88.794  -2.609  24.146  0.00  0.00    +0.000 OA
BRANCH  25  31
ATOM     26  O   UNL     1      88.614  -1.408  22.154  0.00  0.00    +0.000 OA
ATOM     27  C   UNL     1      91.470  -1.271  21.879  0.00  0.00    +0.000 C 
ATOM     28  C   UNL     1      90.518  -0.915  20.737  0.00  0.00    +0.000 C 
ATOM     29  C   UNL     1      90.790  -2.181  22.902  0.00  0.00    +0.000 C 
ATOM     30  C   UNL     1      89.174  -0.425  21.282  0.00  0.00    +0.000 C 
ATOM     31  C   UNL     1      89.420  -1.639  23.307  0.00  0.00    +0.000 C 
BRANCH  27  32
ATOM     32  O   UNL     1      92.600  -1.942  21.320  0.00  0.00    +0.000 OA
ATOM     33  H   UNL     1      92.476  -2.899  21.445  0.00  0.00    +0.000 HD
ENDBRANCH  27  32
BRANCH  28  34
ATOM     34  O   UNL     1      91.103   0.108  19.935  0.00  0.00    +0.000 OA
ATOM     35  H   UNL     1      91.908  -0.255  19.531  0.00  0.00    +0.000 HD
ENDBRANCH  28  34
BRANCH  29  36
ATOM     36  O   UNL     1      91.602  -2.265  24.074  0.00  0.00    +0.000 OA
ATOM     37  H   UNL     1      92.133  -1.452  24.119  0.00  0.00    +0.000 HD
ENDBRANCH  29  36
BRANCH  30  38
ATOM     38  C   UNL     1      88.168  -0.176  20.162  0.00  0.00    +0.000 C 
BRANCH  38  39
ATOM     39  O   UNL     1      88.500   1.043  19.521  0.00  0.00    +0.000 OA
ATOM     40  H   UNL     1      89.379   0.933  19.117  0.00  0.00    +0.000 HD
ENDBRANCH  38  39
ENDBRANCH  30  38
ENDBRANCH  25  31
ENDBRANCH   2  25
TORSDOF 12
ENDMDL
MODEL 5
REMARK VINA RESULT:      -5.4      2.242      3.328
REMARK  Name = 441667
REMARK  12 active torsions:
REMARK  status: ('A' for Active; 'I' for Inactive)
REMARK    1  A    between atoms: O_2  and  C_16
REMARK    2  A    between atoms: O_2  and  C_18
REMARK    3  A    between atoms: O_3  and  C_12
REMARK    4  A    between atoms: O_4  and  C_13
REMARK    5  A    between atoms: O_5  and  C_14
REMARK    6  A    between atoms: O_6  and  C_17
REMARK    7  A    between atoms: O_8  and  C_24
REMARK    8  A    between atoms: O_9  and  C_29
REMARK    9  A    between atoms: O_10  and  C_30
REMARK   10  A    between atoms: O_11  and  C_32
REMARK   11  A    between atoms: C_15  and  C_17
REMARK   12  A    between atoms: C_19  and  C_23
REMARK                            x       y       z     vdW  Elec       q    Type
REMARK                         _______ _______ _______ _____ _____    ______ ____
ROOT
ATOM      1  O   UNL     1      89.054  -3.252  25.408  0.00  0.00    +0.000 OA
ATOM      2  C   UNL     1      89.141  -0.941  24.522  0.00  0.00    +0.000 A 
ATOM      3  C   UNL     1      89.524  -2.388  24.552  0.00  0.00    +0.000 A 
ATOM      4  C   UNL     1      88.297  -0.523  25.474  0.00  0.00    +0.000 A 
ATOM      5  C   UNL     1      87.781  -1.453  26.472  0.00  0.00    +0.000 A 
ATOM      6  C   UNL     1      88.167  -2.795  26.400  0.00  0.00    +0.000 A 
ATOM      7  C   UNL     1      86.904  -1.038  27.479  0.00  0.00    +0.000 A 
ATOM      8  C   UNL     1      87.681  -3.717  27.328  0.00  0.00    +0.000 A 
ATOM      9  C   UNL     1      86.420  -1.962  28.407  0.00  0.00    +0.000 A 
ATOM     10  C   UNL     1      86.807  -3.299  28.331  0.00  0.00    +0.000 A 
ENDROOT
BRANCH   3  11
ATOM     11  C   UNL     1      90.477  -2.865  23.522  0.00  0.00    +0.000 A 
ATOM     12  C   UNL     1      89.998  -3.509  22.387  0.00  0.00    +0.000 A 
ATOM     13  C   UNL     1      91.841  -2.663  23.702  0.00  0.00    +0.000 A 
ATOM     14  C   UNL     1      90.896  -3.957  21.418  0.00  0.00    +0.000 A 
ATOM     15  C   UNL     1      92.738  -3.112  22.732  0.00  0.00    +0.000 A 
ATOM     16  C   UNL     1      92.266  -3.759  21.591  0.00  0.00    +0.000 A 
BRANCH  14  17
ATOM     17  O   UNL     1      90.422  -4.588  20.308  0.00  0.00    +0.000 OA
ATOM     18  H   UNL     1      89.457  -4.463  20.274  0.00  0.00    +0.000 HD
ENDBRANCH  14  17
BRANCH  16  19
ATOM     19  O   UNL     1      93.152  -4.193  20.652  0.00  0.00    +0.000 OA
ATOM     20  H   UNL     1      93.259  -5.156  20.739  0.00  0.00    +0.000 HD
ENDBRANCH  16  19
ENDBRANCH   3  11
BRANCH   7  21
ATOM     21  O   UNL     1      86.499   0.260  27.584  0.00  0.00    +0.000 OA
ATOM     22  H   UNL     1      86.013   0.529  26.788  0.00  0.00    +0.000 HD
ENDBRANCH   7  21
BRANCH  10  23
ATOM     23  O   UNL     1      86.332  -4.197  29.237  0.00  0.00    +0.000 OA
ATOM     24  H   UNL     1      85.376  -4.309  29.098  0.00  0.00    +0.000 HD
ENDBRANCH  10  23
BRANCH   2  25
ATOM     25  O   UNL     1      89.608  -0.119  23.521  0.00  0.00    +0.000 OA
BRANCH  25  31
ATOM     26  O   UNL     1      87.713  -1.065  22.542  0.00  0.00    +0.000 OA
ATOM     27  C   UNL     1      88.503  -0.157  19.934  0.00  0.00    +0.000 C 
ATOM     28  C   UNL     1      87.393  -1.187  20.142  0.00  0.00    +0.000 C 
ATOM     29  C   UNL     1      89.447  -0.110  21.136  0.00  0.00    +0.000 C 
ATOM     30  C   UNL     1      86.729  -1.002  21.508  0.00  0.00    +0.000 C 
ATOM     31  C   UNL     1      88.672  -0.013  22.449  0.00  0.00    +0.000 C 
BRANCH  27  32
ATOM     32  O   UNL     1      89.238  -0.527  18.766  0.00  0.00    +0.000 OA
ATOM     33  H   UNL     1      89.142  -1.487  18.641  0.00  0.00    +0.000 HD
ENDBRANCH  27  32
BRANCH  28  34
ATOM     34  O   UNL     1      86.414  -1.039  19.117  0.00  0.00    +0.000 OA
ATOM     35  H   UNL     1      85.723  -0.443  19.450  0.00  0.00    +0.000 HD
ENDBRANCH  28  34
BRANCH  29  36
ATOM     36  O   UNL     1      90.292   1.037  21.030  0.00  0.00    +0.000 OA
ATOM     37  H   UNL     1      90.108   1.605  21.798  0.00  0.00    +0.000 HD
ENDBRANCH  29  36
BRANCH  30  38
ATOM     38  C   UNL     1      85.698  -2.091  21.787  0.00  0.00    +0.000 C 
BRANCH  38  39
ATOM     39  O   UNL     1      84.432  -1.639  21.339  0.00  0.00    +0.000 OA
ATOM     40  H   UNL     1      84.266  -2.041  20.469  0.00  0.00    +0.000 HD
ENDBRANCH  38  39
ENDBRANCH  30  38
ENDBRANCH  25  31
ENDBRANCH   2  25
TORSDOF 12
ENDMDL
MODEL 6
REMARK VINA RESULT:      -5.2      3.979      5.553
REMARK  Name = 441667
REMARK  12 active torsions:
REMARK  status: ('A' for Active; 'I' for Inactive)
REMARK    1  A    between atoms: O_2  and  C_16
REMARK    2  A    between atoms: O_2  and  C_18
REMARK    3  A    between atoms: O_3  and  C_12
REMARK    4  A    between atoms: O_4  and  C_13
REMARK    5  A    between atoms: O_5  and  C_14
REMARK    6  A    between atoms: O_6  and  C_17
REMARK    7  A    between atoms: O_8  and  C_24
REMARK    8  A    between atoms: O_9  and  C_29
REMARK    9  A    between atoms: O_10  and  C_30
REMARK   10  A    between atoms: O_11  and  C_32
REMARK   11  A    between atoms: C_15  and  C_17
REMARK   12  A    between atoms: C_19  and  C_23
REMARK                            x       y       z     vdW  Elec       q    Type
REMARK                         _______ _______ _______ _____ _____    ______ ____
ROOT
ATOM      1  O   UNL     1      89.520  -0.539  26.994  0.00  0.00    +0.000 OA
ATOM      2  C   UNL     1      87.587  -1.298  25.643  0.00  0.00    +0.000 A 
ATOM      3  C   UNL     1      89.033  -0.982  25.869  0.00  0.00    +0.000 A 
ATOM      4  C   UNL     1      86.754  -1.056  26.663  0.00  0.00    +0.000 A 
ATOM      5  C   UNL     1      87.256  -0.523  27.925  0.00  0.00    +0.000 A 
ATOM      6  C   UNL     1      88.629  -0.292  28.055  0.00  0.00    +0.000 A 
ATOM      7  C   UNL     1      86.404  -0.256  29.001  0.00  0.00    +0.000 A 
ATOM      8  C   UNL     1      89.148   0.203  29.253  0.00  0.00    +0.000 A 
ATOM      9  C   UNL     1      86.925   0.239  30.198  0.00  0.00    +0.000 A 
ATOM     10  C   UNL     1      88.295   0.467  30.324  0.00  0.00    +0.000 A 
ENDROOT
BRANCH   3  11
ATOM     11  C   UNL     1      89.968  -1.219  24.744  0.00  0.00    +0.000 A 
ATOM     12  C   UNL     1      90.872  -2.274  24.810  0.00  0.00    +0.000 A 
ATOM     13  C   UNL     1      89.932  -0.384  23.632  0.00  0.00    +0.000 A 
ATOM     14  C   UNL     1      91.751  -2.496  23.750  0.00  0.00    +0.000 A 
ATOM     15  C   UNL     1      90.811  -0.608  22.573  0.00  0.00    +0.000 A 
ATOM     16  C   UNL     1      91.721  -1.663  22.632  0.00  0.00    +0.000 A 
BRANCH  14  17
ATOM     17  O   UNL     1      92.635  -3.530  23.819  0.00  0.00    +0.000 OA
ATOM     18  H   UNL     1      92.184  -4.338  23.514  0.00  0.00    +0.000 HD
ENDBRANCH  14  17
BRANCH  16  19
ATOM     19  O   UNL     1      92.576  -1.869  21.591  0.00  0.00    +0.000 OA
ATOM     20  H   UNL     1      93.472  -1.604  21.860  0.00  0.00    +0.000 HD
ENDBRANCH  16  19
ENDBRANCH   3  11
BRANCH   7  21
ATOM     21  O   UNL     1      85.060  -0.470  28.919  0.00  0.00    +0.000 OA
ATOM     22  H   UNL     1      84.851  -1.027  28.152  0.00  0.00    +0.000 HD
ENDBRANCH   7  21
BRANCH  10  23
ATOM     23  O   UNL     1      88.800   0.950  31.492  0.00  0.00    +0.000 OA
ATOM     24  H   UNL     1      89.734   1.187  31.358  0.00  0.00    +0.000 HD
ENDBRANCH  10  23
BRANCH   2  25
ATOM     25  O   UNL     1      87.174  -1.857  24.456  0.00  0.00    +0.000 OA
BRANCH  25  31
ATOM     26  O   UNL     1      85.426  -3.387  24.238  0.00  0.00    +0.000 OA
ATOM     27  C   UNL     1      83.729  -1.407  23.033  0.00  0.00    +0.000 C 
ATOM     28  C   UNL     1      83.393  -2.899  23.011  0.00  0.00    +0.000 C 
ATOM     29  C   UNL     1      85.227  -1.181  23.245  0.00  0.00    +0.000 C 
ATOM     30  C   UNL     1      84.016  -3.614  24.212  0.00  0.00    +0.000 C 
ATOM     31  C   UNL     1      85.756  -2.011  24.413  0.00  0.00    +0.000 C 
BRANCH  27  32
ATOM     32  O   UNL     1      83.335  -0.846  21.780  0.00  0.00    +0.000 OA
ATOM     33  H   UNL     1      83.459   0.118  21.828  0.00  0.00    +0.000 HD
ENDBRANCH  27  32
BRANCH  28  34
ATOM     34  O   UNL     1      81.978  -3.064  23.045  0.00  0.00    +0.000 OA
ATOM     35  H   UNL     1      81.615  -2.401  23.654  0.00  0.00    +0.000 HD
ENDBRANCH  28  34
BRANCH  29  36
ATOM     36  O   UNL     1      85.461   0.198  23.534  0.00  0.00    +0.000 OA
ATOM     37  H   UNL     1      86.424   0.331  23.554  0.00  0.00    +0.000 HD
ENDBRANCH  29  36
BRANCH  30  38
ATOM     38  C   UNL     1      83.793  -5.122  24.149  0.00  0.00    +0.000 C 
BRANCH  38  39
ATOM     39  O   UNL     1      83.610  -5.495  22.795  0.00  0.00    +0.000 OA
ATOM     40  H   UNL     1      84.150  -4.897  22.249  0.00  0.00    +0.000 HD
ENDBRANCH  38  39
ENDBRANCH  30  38
ENDBRANCH  25  31
ENDBRANCH   2  25
TORSDOF 12
ENDMDL
MODEL 7
REMARK VINA RESULT:      -5.1      1.909      7.466
REMARK  Name = 441667
REMARK  12 active torsions:
REMARK  status: ('A' for Active; 'I' for Inactive)
REMARK    1  A    between atoms: O_2  and  C_16
REMARK    2  A    between atoms: O_2  and  C_18
REMARK    3  A    between atoms: O_3  and  C_12
REMARK    4  A    between atoms: O_4  and  C_13
REMARK    5  A    between atoms: O_5  and  C_14
REMARK    6  A    between atoms: O_6  and  C_17
REMARK    7  A    between atoms: O_8  and  C_24
REMARK    8  A    between atoms: O_9  and  C_29
REMARK    9  A    between atoms: O_10  and  C_30
REMARK   10  A    between atoms: O_11  and  C_32
REMARK   11  A    between atoms: C_15  and  C_17
REMARK   12  A    between atoms: C_19  and  C_23
REMARK                            x       y       z     vdW  Elec       q    Type
REMARK                         _______ _______ _______ _____ _____    ______ ____
ROOT
ATOM      1  O   UNL     1      87.927   0.370  19.794  0.00  0.00    +0.000 OA
ATOM      2  C   UNL     1      88.397  -2.051  20.020  0.00  0.00    +0.000 A 
ATOM      3  C   UNL     1      88.103  -0.680  20.545  0.00  0.00    +0.000 A 
ATOM      4  C   UNL     1      88.531  -2.169  18.692  0.00  0.00    +0.000 A 
ATOM      5  C   UNL     1      88.379  -1.008  17.823  0.00  0.00    +0.000 A 
ATOM      6  C   UNL     1      88.069   0.227  18.401  0.00  0.00    +0.000 A 
ATOM      7  C   UNL     1      88.520  -1.106  16.435  0.00  0.00    +0.000 A 
ATOM      8  C   UNL     1      87.902   1.356  17.599  0.00  0.00    +0.000 A 
ATOM      9  C   UNL     1      88.353   0.025  15.635  0.00  0.00    +0.000 A 
ATOM     10  C   UNL     1      88.043   1.255  16.216  0.00  0.00    +0.000 A 
ENDROOT
BRANCH   3  11
ATOM     11  C   UNL     1      87.977  -0.523  22.013  0.00  0.00    +0.000 A 
ATOM     12  C   UNL     1      86.771  -0.824  22.636  0.00  0.00    +0.000 A 
ATOM     13  C   UNL     1      89.067  -0.078  22.753  0.00  0.00    +0.000 A 
ATOM     14  C   UNL     1      86.653  -0.676  24.019  0.00  0.00    +0.000 A 
ATOM     15  C   UNL     1      88.948   0.069  24.135  0.00  0.00    +0.000 A 
ATOM     16  C   UNL     1      87.742  -0.230  24.768  0.00  0.00    +0.000 A 
BRANCH  14  17
ATOM     17  O   UNL     1      85.470  -0.971  24.625  0.00  0.00    +0.000 OA
ATOM     18  H   UNL     1      84.985  -1.598  24.059  0.00  0.00    +0.000 HD
ENDBRANCH  14  17
BRANCH  16  19
ATOM     19  O   UNL     1      87.639  -0.080  26.118  0.00  0.00    +0.000 OA
ATOM     20  H   UNL     1      88.167   0.689  26.393  0.00  0.00    +0.000 HD
ENDBRANCH  16  19
ENDBRANCH   3  11
BRANCH   7  21
ATOM     21  O   UNL     1      88.819  -2.291  15.829  0.00  0.00    +0.000 OA
ATOM     22  H   UNL     1      88.059  -2.892  15.867  0.00  0.00    +0.000 HD
ENDBRANCH   7  21
BRANCH  10  23
ATOM     23  O   UNL     1      87.880   2.356  15.432  0.00  0.00    +0.000 OA
ATOM     24  H   UNL     1      88.584   2.372  14.761  0.00  0.00    +0.000 HD
ENDBRANCH  10  23
BRANCH   2  25
ATOM     25  O   UNL     1      88.469  -3.124  20.878  0.00  0.00    +0.000 OA
BRANCH  25  31
ATOM     26  O   UNL     1      90.752  -2.904  21.304  0.00  0.00    +0.000 OA
ATOM     27  C   UNL     1      90.454  -4.010  23.939  0.00  0.00    +0.000 C 
ATOM     28  C   UNL     1      91.819  -3.830  23.275  0.00  0.00    +0.000 C 
ATOM     29  C   UNL     1      89.336  -4.066  22.897  0.00  0.00    +0.000 C 
ATOM     30  C   UNL     1      91.785  -2.680  22.266  0.00  0.00    +0.000 C 
ATOM     31  C   UNL     1      89.453  -2.922  21.892  0.00  0.00    +0.000 C 
BRANCH  27  32
ATOM     32  O   UNL     1      90.479  -5.233  24.677  0.00  0.00    +0.000 OA
ATOM     33  H   UNL     1      89.560  -5.508  24.837  0.00  0.00    +0.000 HD
ENDBRANCH  27  32
BRANCH  28  34
ATOM     34  O   UNL     1      92.797  -3.552  24.274  0.00  0.00    +0.000 OA
ATOM     35  H   UNL     1      92.678  -4.193  24.994  0.00  0.00    +0.000 HD
ENDBRANCH  28  34
BRANCH  29  36
ATOM     36  O   UNL     1      88.072  -3.957  23.553  0.00  0.00    +0.000 OA
ATOM     37  H   UNL     1      88.213  -3.457  24.375  0.00  0.00    +0.000 HD
ENDBRANCH  29  36
BRANCH  30  38
ATOM     38  C   UNL     1      93.102  -2.555  21.506  0.00  0.00    +0.000 C 
BRANCH  38  39
ATOM     39  O   UNL     1      93.720  -3.829  21.464  0.00  0.00    +0.000 OA
ATOM     40  H   UNL     1      93.715  -4.129  20.539  0.00  0.00    +0.000 HD
ENDBRANCH  38  39
ENDBRANCH  30  38
ENDBRANCH  25  31
ENDBRANCH   2  25
TORSDOF 12
ENDMDL
MODEL 8
REMARK VINA RESULT:      -5.1      3.266      5.210
REMARK  Name = 441667
REMARK  12 active torsions:
REMARK  status: ('A' for Active; 'I' for Inactive)
REMARK    1  A    between atoms: O_2  and  C_16
REMARK    2  A    between atoms: O_2  and  C_18
REMARK    3  A    between atoms: O_3  and  C_12
REMARK    4  A    between atoms: O_4  and  C_13
REMARK    5  A    between atoms: O_5  and  C_14
REMARK    6  A    between atoms: O_6  and  C_17
REMARK    7  A    between atoms: O_8  and  C_24
REMARK    8  A    between atoms: O_9  and  C_29
REMARK    9  A    between atoms: O_10  and  C_30
REMARK   10  A    between atoms: O_11  and  C_32
REMARK   11  A    between atoms: C_15  and  C_17
REMARK   12  A    between atoms: C_19  and  C_23
REMARK                            x       y       z     vdW  Elec       q    Type
REMARK                         _______ _______ _______ _____ _____    ______ ____
ROOT
ATOM      1  O   UNL     1      89.576  -0.612  27.010  0.00  0.00    +0.000 OA
ATOM      2  C   UNL     1      87.794  -1.887  25.855  0.00  0.00    +0.000 A 
ATOM      3  C   UNL     1      89.142  -1.244  25.955  0.00  0.00    +0.000 A 
ATOM      4  C   UNL     1      86.983  -1.749  26.912  0.00  0.00    +0.000 A 
ATOM      5  C   UNL     1      87.420  -1.016  28.095  0.00  0.00    +0.000 A 
ATOM      6  C   UNL     1      88.710  -0.479  28.111  0.00  0.00    +0.000 A 
ATOM      7  C   UNL     1      86.588  -0.853  29.207  0.00  0.00    +0.000 A 
ATOM      8  C   UNL     1      89.169   0.216  29.232  0.00  0.00    +0.000 A 
ATOM      9  C   UNL     1      87.048  -0.157  30.326  0.00  0.00    +0.000 A 
ATOM     10  C   UNL     1      88.336   0.376  30.339  0.00  0.00    +0.000 A 
ENDROOT
BRANCH   3  11
ATOM     11  C   UNL     1      90.045  -1.364  24.786  0.00  0.00    +0.000 A 
ATOM     12  C   UNL     1      90.947  -2.419  24.718  0.00  0.00    +0.000 A 
ATOM     13  C   UNL     1      89.980  -0.418  23.769  0.00  0.00    +0.000 A 
ATOM     14  C   UNL     1      91.797  -2.531  23.617  0.00  0.00    +0.000 A 
ATOM     15  C   UNL     1      90.830  -0.531  22.668  0.00  0.00    +0.000 A 
ATOM     16  C   UNL     1      91.738  -1.587  22.592  0.00  0.00    +0.000 A 
BRANCH  14  17
ATOM     17  O   UNL     1      92.678  -3.567  23.555  0.00  0.00    +0.000 OA
ATOM     18  H   UNL     1      92.484  -4.086  22.754  0.00  0.00    +0.000 HD
ENDBRANCH  14  17
BRANCH  16  19
ATOM     19  O   UNL     1      92.563  -1.684  21.512  0.00  0.00    +0.000 OA
ATOM     20  H   UNL     1      92.027  -1.855  20.718  0.00  0.00    +0.000 HD
ENDBRANCH  16  19
ENDBRANCH   3  11
BRANCH   7  21
ATOM     21  O   UNL     1      85.324  -1.363  29.235  0.00  0.00    +0.000 OA
ATOM     22  H   UNL     1      84.824  -1.073  28.456  0.00  0.00    +0.000 HD
ENDBRANCH   7  21
BRANCH  10  23
ATOM     23  O   UNL     1      88.782   1.054  31.432  0.00  0.00    +0.000 OA
ATOM     24  H   UNL     1      88.398   1.947  31.427  0.00  0.00    +0.000 HD
ENDBRANCH  10  23
BRANCH   2  25
ATOM     25  O   UNL     1      87.454  -2.621  24.742  0.00  0.00    +0.000 OA
BRANCH  25  31
ATOM     26  O   UNL     1      85.270  -1.873  24.404  0.00  0.00    +0.000 OA
ATOM     27  C   UNL     1      85.599  -1.936  21.551  0.00  0.00    +0.000 C 
ATOM     28  C   UNL     1      84.229  -1.791  22.216  0.00  0.00    +0.000 C 
ATOM     29  C   UNL     1      86.612  -2.570  22.505  0.00  0.00    +0.000 C 
ATOM     30  C   UNL     1      84.360  -1.131  23.590  0.00  0.00    +0.000 C 
ATOM     31  C   UNL     1      86.593  -1.888  23.871  0.00  0.00    +0.000 C 
BRANCH  27  32
ATOM     32  O   UNL     1      85.445  -2.766  20.399  0.00  0.00    +0.000 OA
ATOM     33  H   UNL     1      85.089  -3.624  20.689  0.00  0.00    +0.000 HD
ENDBRANCH  27  32
BRANCH  28  34
ATOM     34  O   UNL     1      83.385  -0.996  21.389  0.00  0.00    +0.000 OA
ATOM     35  H   UNL     1      82.661  -1.560  21.072  0.00  0.00    +0.000 HD
ENDBRANCH  28  34
BRANCH  29  36
ATOM     36  O   UNL     1      87.924  -2.437  21.957  0.00  0.00    +0.000 OA
ATOM     37  H   UNL     1      88.130  -3.265  21.490  0.00  0.00    +0.000 HD
ENDBRANCH  29  36
BRANCH  30  38
ATOM     38  C   UNL     1      83.023  -1.081  24.323  0.00  0.00    +0.000 C 
BRANCH  38  39
ATOM     39  O   UNL     1      82.204  -2.131  23.838  0.00  0.00    +0.000 OA
ATOM     40  H   UNL     1      82.435  -2.937  24.331  0.00  0.00    +0.000 HD
ENDBRANCH  38  39
ENDBRANCH  30  38
ENDBRANCH  25  31
ENDBRANCH   2  25
TORSDOF 12
ENDMDL
MODEL 9
REMARK VINA RESULT:      -5.0      2.798      7.145
REMARK  Name = 441667
REMARK  12 active torsions:
REMARK  status: ('A' for Active; 'I' for Inactive)
REMARK    1  A    between atoms: O_2  and  C_16
REMARK    2  A    between atoms: O_2  and  C_18
REMARK    3  A    between atoms: O_3  and  C_12
REMARK    4  A    between atoms: O_4  and  C_13
REMARK    5  A    between atoms: O_5  and  C_14
REMARK    6  A    between atoms: O_6  and  C_17
REMARK    7  A    between atoms: O_8  and  C_24
REMARK    8  A    between atoms: O_9  and  C_29
REMARK    9  A    between atoms: O_10  and  C_30
REMARK   10  A    between atoms: O_11  and  C_32
REMARK   11  A    between atoms: C_15  and  C_17
REMARK   12  A    between atoms: C_19  and  C_23
REMARK                            x       y       z     vdW  Elec       q    Type
REMARK                         _______ _______ _______ _____ _____    ______ ____
ROOT
ATOM      1  O   UNL     1      89.100  -0.156  22.040  0.00  0.00    +0.000 OA
ATOM      2  C   UNL     1      89.926  -2.482  22.238  0.00  0.00    +0.000 A 
ATOM      3  C   UNL     1      89.537  -1.140  22.775  0.00  0.00    +0.000 A 
ATOM      4  C   UNL     1      89.856  -2.641  20.910  0.00  0.00    +0.000 A 
ATOM      5  C   UNL     1      89.407  -1.550  20.053  0.00  0.00    +0.000 A 
ATOM      6  C   UNL     1      89.031  -0.342  20.647  0.00  0.00    +0.000 A 
ATOM      7  C   UNL     1      89.332  -1.691  18.664  0.00  0.00    +0.000 A 
ATOM      8  C   UNL     1      88.582   0.720  19.860  0.00  0.00    +0.000 A 
ATOM      9  C   UNL     1      88.883  -0.628  17.878  0.00  0.00    +0.000 A 
ATOM     10  C   UNL     1      88.508   0.576  18.475  0.00  0.00    +0.000 A 
ENDROOT
BRANCH   3  11
ATOM     11  C   UNL     1      89.633  -0.935  24.240  0.00  0.00    +0.000 A 
ATOM     12  C   UNL     1      88.503  -0.561  24.957  0.00  0.00    +0.000 A 
ATOM     13  C   UNL     1      90.853  -1.120  24.881  0.00  0.00    +0.000 A 
ATOM     14  C   UNL     1      88.594  -0.369  26.337  0.00  0.00    +0.000 A 
ATOM     15  C   UNL     1      90.943  -0.929  26.260  0.00  0.00    +0.000 A 
ATOM     16  C   UNL     1      89.814  -0.553  26.987  0.00  0.00    +0.000 A 
BRANCH  14  17
ATOM     17  O   UNL     1      87.484  -0.003  27.036  0.00  0.00    +0.000 OA
ATOM     18  H   UNL     1      86.728  -0.516  26.699  0.00  0.00    +0.000 HD
ENDBRANCH  14  17
BRANCH  16  19
ATOM     19  O   UNL     1      89.916  -0.368  28.333  0.00  0.00    +0.000 OA
ATOM     20  H   UNL     1      90.840  -0.165  28.556  0.00  0.00    +0.000 HD
ENDBRANCH  16  19
ENDBRANCH   3  11
BRANCH   7  21
ATOM     21  O   UNL     1      89.685  -2.852  18.042  0.00  0.00    +0.000 OA
ATOM     22  H   UNL     1      90.509  -3.200  18.418  0.00  0.00    +0.000 HD
ENDBRANCH   7  21
BRANCH  10  23
ATOM     23  O   UNL     1      88.070   1.610  17.706  0.00  0.00    +0.000 OA
ATOM     24  H   UNL     1      88.580   2.407  17.930  0.00  0.00    +0.000 HD
ENDBRANCH  10  23
BRANCH   2  25
ATOM     25  O   UNL     1      90.283  -3.498  23.096  0.00  0.00    +0.000 OA
BRANCH  25  31
ATOM     26  O   UNL     1      87.956  -3.625  23.199  0.00  0.00    +0.000 OA
ATOM     27  C   UNL     1      88.070  -5.558  25.321  0.00  0.00    +0.000 C 
ATOM     28  C   UNL     1      86.779  -4.833  24.940  0.00  0.00    +0.000 C 
ATOM     29  C   UNL     1      89.300  -4.773  24.863  0.00  0.00    +0.000 C 
ATOM     30  C   UNL     1      86.800  -4.422  23.467  0.00  0.00    +0.000 C 
ATOM     31  C   UNL     1      89.172  -4.340  23.403  0.00  0.00    +0.000 C 
BRANCH  27  32
ATOM     32  O   UNL     1      88.096  -5.698  26.742  0.00  0.00    +0.000 OA
ATOM     33  H   UNL     1      89.025  -5.661  27.032  0.00  0.00    +0.000 HD
ENDBRANCH  27  32
BRANCH  28  34
ATOM     34  O   UNL     1      85.668  -5.695  25.173  0.00  0.00    +0.000 OA
ATOM     35  H   UNL     1      85.080  -5.257  25.811  0.00  0.00    +0.000 HD
ENDBRANCH  28  34
BRANCH  29  36
ATOM     36  O   UNL     1      90.460  -5.598  24.984  0.00  0.00    +0.000 OA
ATOM     37  H   UNL     1      90.180  -6.517  24.834  0.00  0.00    +0.000 HD
ENDBRANCH  29  36
BRANCH  30  38
ATOM     38  C   UNL     1      85.574  -3.595  23.093  0.00  0.00    +0.000 C 
BRANCH  38  39
ATOM     39  O   UNL     1      85.115  -2.921  24.251  0.00  0.00    +0.000 OA
ATOM     40  H   UNL     1      85.163  -1.965  24.075  0.00  0.00    +0.000 HD
ENDBRANCH  38  39
ENDBRANCH  30  38
ENDBRANCH  25  31
ENDBRANCH   2  25
TORSDOF 12
ENDMDL
