MODEL 1
REMARK VINA RESULT:      -6.9      0.000      0.000
REMARK  Name = 155598690
REMARK  7 active torsions:
REMARK  status: ('A' for Active; 'I' for Inactive)
REMARK    1  A    between atoms: O_1  and  C_11
REMARK    2  A    between atoms: O_1  and  C_16
REMARK    3  A    between atoms: O_3  and  C_19
REMARK    4  A    between atoms: O_3  and  C_25
REMARK    5  A    between atoms: N_4  and  C_10
REMARK    6  A    between atoms: C_16  and  C_19
REMARK    7  A    between atoms: C_17  and  C_18
REMARK                            x       y       z     vdW  Elec       q    Type
REMARK                         _______ _______ _______ _____ _____    ______ ____
ROOT
ATOM      1  O   UNL     1      93.513  -1.545  26.292  0.00  0.00    +0.000 OA
ATOM      2  N   UNL     1      94.708  -0.068  27.621  0.00  0.00    +0.000 N 
ATOM      3  C   UNL     1      93.555  -0.573  27.040  0.00  0.00    +0.000 C 
ATOM      4  H   UNL     1      94.648   0.777  28.184  0.00  0.00    +0.000 HD
ENDROOT
BRANCH   3  10
ATOM      5  N   UNL     1      92.403   1.384  27.907  0.00  0.00    +0.000 NA
ATOM      6  N   UNL     1      90.597  -1.526  26.562  0.00  0.00    +0.000 N 
ATOM      7  N   UNL     1      89.984   1.638  27.982  0.00  0.00    +0.000 NA
ATOM      8  N   UNL     1      91.404   3.299  28.758  0.00  0.00    +0.000 N 
ATOM      9  N   UNL     1      90.857   5.262  29.640  0.00  0.00    +0.000 NA
ATOM     10  C   UNL     1      92.299   0.158  27.350  0.00  0.00    +0.000 A 
ATOM     11  C   UNL     1      91.035  -0.345  27.103  0.00  0.00    +0.000 A 
ATOM     12  C   UNL     1      89.907   0.405  27.423  0.00  0.00    +0.000 A 
ATOM     13  C   UNL     1      91.255   2.040  28.185  0.00  0.00    +0.000 A 
ATOM     14  C   UNL     1      88.769  -0.357  27.060  0.00  0.00    +0.000 A 
ATOM     15  C   UNL     1      89.225  -1.544  26.531  0.00  0.00    +0.000 A 
ATOM     16  C   UNL     1      92.585   3.917  29.056  0.00  0.00    +0.000 A 
ATOM     17  C   UNL     1      90.395   4.144  29.125  0.00  0.00    +0.000 A 
ATOM     18  C   UNL     1      92.222   5.127  29.600  0.00  0.00    +0.000 A 
ATOM     19  H   UNL     1      91.194  -2.275  26.233  0.00  0.00    +0.000 HD
ENDBRANCH   3  10
BRANCH   2  20
ATOM     20  C   UNL     1      96.008  -0.651  27.395  0.00  0.00    +0.000 C 
ATOM     21  C   UNL     1      98.953  -0.606  27.605  0.00  0.00    +0.000 C 
ATOM     22  C   UNL     1      96.853   0.253  26.494  0.00  0.00    +0.000 C 
ATOM     23  C   UNL     1      96.713  -0.934  28.725  0.00  0.00    +0.000 C 
ATOM     24  C   UNL     1      98.250  -0.322  26.279  0.00  0.00    +0.000 C 
ATOM     25  C   UNL     1      98.110  -1.507  28.503  0.00  0.00    +0.000 C 
BRANCH  21  26
ATOM     26  O   UNL     1     100.200  -1.247  27.358  0.00  0.00    +0.000 OA
BRANCH  26  27
ATOM     27  C   UNL     1     100.337  -1.608  25.992  0.00  0.00    +0.000 C 
BRANCH  27  28
ATOM     28  C   UNL     1     100.909  -3.010  25.905  0.00  0.00    +0.000 C 
BRANCH  28  29
ATOM     29  O   UNL     1     101.518  -3.185  24.632  0.00  0.00    +0.000 OA
ATOM     30  C   UNL     1     101.871  -1.938  24.049  0.00  0.00    +0.000 C 
ENDBRANCH  28  29
ENDBRANCH  27  28
ENDBRANCH  26  27
ENDBRANCH  21  26
ENDBRANCH   2  20
TORSDOF 6
ENDMDL
MODEL 2
REMARK VINA RESULT:      -6.4      3.643      9.082
REMARK  Name = 155598690
REMARK  7 active torsions:
REMARK  status: ('A' for Active; 'I' for Inactive)
REMARK    1  A    between atoms: O_1  and  C_11
REMARK    2  A    between atoms: O_1  and  C_16
REMARK    3  A    between atoms: O_3  and  C_19
REMARK    4  A    between atoms: O_3  and  C_25
REMARK    5  A    between atoms: N_4  and  C_10
REMARK    6  A    between atoms: C_16  and  C_19
REMARK    7  A    between atoms: C_17  and  C_18
REMARK                            x       y       z     vdW  Elec       q    Type
REMARK                         _______ _______ _______ _____ _____    ______ ____
ROOT
ATOM      1  O   UNL     1      92.785   1.481  30.135  0.00  0.00    +0.000 OA
ATOM      2  N   UNL     1      92.035   2.511  28.198  0.00  0.00    +0.000 N 
ATOM      3  C   UNL     1      92.604   1.473  28.921  0.00  0.00    +0.000 C 
ATOM      4  H   UNL     1      91.976   2.433  27.186  0.00  0.00    +0.000 HD
ENDROOT
BRANCH   3  10
ATOM      5  N   UNL     1      94.355   0.026  28.058  0.00  0.00    +0.000 NA
ATOM      6  N   UNL     1      90.792  -0.555  27.344  0.00  0.00    +0.000 N 
ATOM      7  N   UNL     1      93.963  -1.926  26.658  0.00  0.00    +0.000 NA
ATOM      8  N   UNL     1      96.103  -1.292  27.285  0.00  0.00    +0.000 N 
ATOM      9  N   UNL     1      98.026  -2.271  26.763  0.00  0.00    +0.000 NA
ATOM     10  C   UNL     1      93.033   0.291  28.130  0.00  0.00    +0.000 A 
ATOM     11  C   UNL     1      92.158  -0.549  27.466  0.00  0.00    +0.000 A 
ATOM     12  C   UNL     1      92.641  -1.638  26.746  0.00  0.00    +0.000 A 
ATOM     13  C   UNL     1      94.734  -1.052  27.336  0.00  0.00    +0.000 A 
ATOM     14  C   UNL     1      91.527  -2.307  26.182  0.00  0.00    +0.000 A 
ATOM     15  C   UNL     1      90.399  -1.616  26.567  0.00  0.00    +0.000 A 
ATOM     16  C   UNL     1      97.077  -0.549  27.890  0.00  0.00    +0.000 A 
ATOM     17  C   UNL     1      96.720  -2.315  26.622  0.00  0.00    +0.000 A 
ATOM     18  C   UNL     1      98.255  -1.173  27.553  0.00  0.00    +0.000 A 
ATOM     19  H   UNL     1      90.165   0.120  27.762  0.00  0.00    +0.000 HD
ENDBRANCH   3  10
BRANCH   2  20
ATOM     20  C   UNL     1      91.592   3.736  28.819  0.00  0.00    +0.000 C 
ATOM     21  C   UNL     1      90.425   6.445  28.689  0.00  0.00    +0.000 C 
ATOM     22  C   UNL     1      92.406   4.925  28.301  0.00  0.00    +0.000 C 
ATOM     23  C   UNL     1      90.091   3.942  28.596  0.00  0.00    +0.000 C 
ATOM     24  C   UNL     1      91.922   6.238  28.910  0.00  0.00    +0.000 C 
ATOM     25  C   UNL     1      89.615   5.258  29.205  0.00  0.00    +0.000 C 
BRANCH  21  26
ATOM     26  O   UNL     1      89.998   7.619  29.372  0.00  0.00    +0.000 OA
BRANCH  26  27
ATOM     27  C   UNL     1      88.927   7.344  30.262  0.00  0.00    +0.000 C 
BRANCH  27  28
ATOM     28  C   UNL     1      89.311   7.800  31.656  0.00  0.00    +0.000 C 
BRANCH  28  29
ATOM     29  O   UNL     1      89.575   6.657  32.461  0.00  0.00    +0.000 OA
ATOM     30  C   UNL     1      89.971   7.027  33.775  0.00  0.00    +0.000 C 
ENDBRANCH  28  29
ENDBRANCH  27  28
ENDBRANCH  26  27
ENDBRANCH  21  26
ENDBRANCH   2  20
TORSDOF 6
ENDMDL
MODEL 3
REMARK VINA RESULT:      -6.3      3.662      7.770
REMARK  Name = 155598690
REMARK  7 active torsions:
REMARK  status: ('A' for Active; 'I' for Inactive)
REMARK    1  A    between atoms: O_1  and  C_11
REMARK    2  A    between atoms: O_1  and  C_16
REMARK    3  A    between atoms: O_3  and  C_19
REMARK    4  A    between atoms: O_3  and  C_25
REMARK    5  A    between atoms: N_4  and  C_10
REMARK    6  A    between atoms: C_16  and  C_19
REMARK    7  A    between atoms: C_17  and  C_18
REMARK                            x       y       z     vdW  Elec       q    Type
REMARK                         _______ _______ _______ _____ _____    ______ ____
ROOT
ATOM      1  O   UNL     1      97.003   0.313  26.803  0.00  0.00    +0.000 OA
ATOM      2  N   UNL     1      94.887   1.242  26.997  0.00  0.00    +0.000 N 
ATOM      3  C   UNL     1      95.804   0.203  27.042  0.00  0.00    +0.000 C 
ATOM      4  H   UNL     1      93.904   1.040  27.158  0.00  0.00    +0.000 HD
ENDROOT
BRANCH   3  10
ATOM      5  N   UNL     1      93.934  -1.345  27.181  0.00  0.00    +0.000 NA
ATOM      6  N   UNL     1      97.339  -2.272  28.226  0.00  0.00    +0.000 N 
ATOM      7  N   UNL     1      94.097  -3.629  28.005  0.00  0.00    +0.000 NA
ATOM      8  N   UNL     1      92.083  -2.743  27.272  0.00  0.00    +0.000 N 
ATOM      9  N   UNL     1      90.099  -3.737  27.196  0.00  0.00    +0.000 NA
ATOM     10  C   UNL     1      95.253  -1.133  27.388  0.00  0.00    +0.000 A 
ATOM     11  C   UNL     1      96.010  -2.167  27.907  0.00  0.00    +0.000 A 
ATOM     12  C   UNL     1      95.416  -3.391  28.204  0.00  0.00    +0.000 A 
ATOM     13  C   UNL     1      93.444  -2.564  27.498  0.00  0.00    +0.000 A 
ATOM     14  C   UNL     1      96.425  -4.243  28.714  0.00  0.00    +0.000 A 
ATOM     15  C   UNL     1      97.602  -3.527  28.716  0.00  0.00    +0.000 A 
ATOM     16  C   UNL     1      91.219  -1.814  26.766  0.00  0.00    +0.000 A 
ATOM     17  C   UNL     1      91.367  -3.881  27.514  0.00  0.00    +0.000 A 
ATOM     18  C   UNL     1      90.001  -2.450  26.729  0.00  0.00    +0.000 A 
ATOM     19  H   UNL     1      98.026  -1.537  28.119  0.00  0.00    +0.000 HD
ENDBRANCH   3  10
BRANCH   2  20
ATOM     20  C   UNL     1      95.263   2.592  26.651  0.00  0.00    +0.000 C 
ATOM     21  C   UNL     1      94.663   5.469  26.369  0.00  0.00    +0.000 C 
ATOM     22  C   UNL     1      94.399   3.111  25.499  0.00  0.00    +0.000 C 
ATOM     23  C   UNL     1      95.177   3.507  27.876  0.00  0.00    +0.000 C 
ATOM     24  C   UNL     1      94.748   4.555  25.149  0.00  0.00    +0.000 C 
ATOM     25  C   UNL     1      95.525   4.949  27.517  0.00  0.00    +0.000 C 
BRANCH  21  26
ATOM     26  O   UNL     1      95.108   6.775  26.020  0.00  0.00    +0.000 OA
BRANCH  26  27
ATOM     27  C   UNL     1      94.410   7.775  26.748  0.00  0.00    +0.000 C 
BRANCH  27  28
ATOM     28  C   UNL     1      92.920   7.509  26.650  0.00  0.00    +0.000 C 
BRANCH  28  29
ATOM     29  O   UNL     1      92.342   7.628  27.944  0.00  0.00    +0.000 OA
ATOM     30  C   UNL     1      91.544   6.497  28.264  0.00  0.00    +0.000 C 
ENDBRANCH  28  29
ENDBRANCH  27  28
ENDBRANCH  26  27
ENDBRANCH  21  26
ENDBRANCH   2  20
TORSDOF 6
ENDMDL
MODEL 4
REMARK VINA RESULT:      -6.3      1.875      2.282
REMARK  Name = 155598690
REMARK  7 active torsions:
REMARK  status: ('A' for Active; 'I' for Inactive)
REMARK    1  A    between atoms: O_1  and  C_11
REMARK    2  A    between atoms: O_1  and  C_16
REMARK    3  A    between atoms: O_3  and  C_19
REMARK    4  A    between atoms: O_3  and  C_25
REMARK    5  A    between atoms: N_4  and  C_10
REMARK    6  A    between atoms: C_16  and  C_19
REMARK    7  A    between atoms: C_17  and  C_18
REMARK                            x       y       z     vdW  Elec       q    Type
REMARK                         _______ _______ _______ _____ _____    ______ ____
ROOT
ATOM      1  O   UNL     1      94.429   0.229  26.619  0.00  0.00    +0.000 OA
ATOM      2  N   UNL     1      93.814  -1.407  28.142  0.00  0.00    +0.000 N 
ATOM      3  C   UNL     1      93.607  -0.264  27.386  0.00  0.00    +0.000 C 
ATOM      4  H   UNL     1      93.091  -1.708  28.791  0.00  0.00    +0.000 HD
ENDROOT
BRANCH   3  10
ATOM      5  N   UNL     1      92.274   1.654  28.058  0.00  0.00    +0.000 NA
ATOM      6  N   UNL     1      90.760  -1.428  26.734  0.00  0.00    +0.000 N 
ATOM      7  N   UNL     1      89.845   1.755  27.933  0.00  0.00    +0.000 NA
ATOM      8  N   UNL     1      91.095   3.539  28.727  0.00  0.00    +0.000 N 
ATOM      9  N   UNL     1      90.362   5.503  29.458  0.00  0.00    +0.000 NA
ATOM     10  C   UNL     1      92.289   0.399  27.560  0.00  0.00    +0.000 A 
ATOM     11  C   UNL     1      91.081  -0.196  27.244  0.00  0.00    +0.000 A 
ATOM     12  C   UNL     1      89.888   0.494  27.436  0.00  0.00    +0.000 A 
ATOM     13  C   UNL     1      91.069   2.248  28.211  0.00  0.00    +0.000 A 
ATOM     14  C   UNL     1      88.831  -0.356  27.028  0.00  0.00    +0.000 A 
ATOM     15  C   UNL     1      89.399  -1.535  26.599  0.00  0.00    +0.000 A 
ATOM     16  C   UNL     1      92.209   4.246  29.082  0.00  0.00    +0.000 A 
ATOM     17  C   UNL     1      90.011   4.334  28.970  0.00  0.00    +0.000 A 
ATOM     18  C   UNL     1      91.731   5.454  29.530  0.00  0.00    +0.000 A 
ATOM     19  H   UNL     1      91.425  -2.151  26.492  0.00  0.00    +0.000 HD
ENDBRANCH   3  10
BRANCH   2  20
ATOM     20  C   UNL     1      95.052  -2.148  28.103  0.00  0.00    +0.000 C 
ATOM     21  C   UNL     1      97.034  -3.971  29.315  0.00  0.00    +0.000 C 
ATOM     22  C   UNL     1      96.001  -1.667  29.204  0.00  0.00    +0.000 C 
ATOM     23  C   UNL     1      94.785  -3.653  28.209  0.00  0.00    +0.000 C 
ATOM     24  C   UNL     1      97.298  -2.470  29.210  0.00  0.00    +0.000 C 
ATOM     25  C   UNL     1      96.087  -4.448  28.218  0.00  0.00    +0.000 C 
BRANCH  21  26
ATOM     26  O   UNL     1      98.261  -4.682  29.200  0.00  0.00    +0.000 OA
BRANCH  26  27
ATOM     27  C   UNL     1      99.254  -3.905  28.546  0.00  0.00    +0.000 C 
BRANCH  27  28
ATOM     28  C   UNL     1      99.844  -4.714  27.407  0.00  0.00    +0.000 C 
BRANCH  28  29
ATOM     29  O   UNL     1      98.940  -4.696  26.309  0.00  0.00    +0.000 OA
ATOM     30  C   UNL     1      98.708  -3.373  25.847  0.00  0.00    +0.000 C 
ENDBRANCH  28  29
ENDBRANCH  27  28
ENDBRANCH  26  27
ENDBRANCH  21  26
ENDBRANCH   2  20
TORSDOF 6
ENDMDL
MODEL 5
REMARK VINA RESULT:      -6.3      5.097      7.411
REMARK  Name = 155598690
REMARK  7 active torsions:
REMARK  status: ('A' for Active; 'I' for Inactive)
REMARK    1  A    between atoms: O_1  and  C_11
REMARK    2  A    between atoms: O_1  and  C_16
REMARK    3  A    between atoms: O_3  and  C_19
REMARK    4  A    between atoms: O_3  and  C_25
REMARK    5  A    between atoms: N_4  and  C_10
REMARK    6  A    between atoms: C_16  and  C_19
REMARK    7  A    between atoms: C_17  and  C_18
REMARK                            x       y       z     vdW  Elec       q    Type
REMARK                         _______ _______ _______ _____ _____    ______ ____
ROOT
ATOM      1  O   UNL     1      90.707   2.392  29.828  0.00  0.00    +0.000 OA
ATOM      2  N   UNL     1      91.301   1.931  27.634  0.00  0.00    +0.000 N 
ATOM      3  C   UNL     1      91.134   2.756  28.736  0.00  0.00    +0.000 C 
ATOM      4  H   UNL     1      91.611   2.338  26.755  0.00  0.00    +0.000 HD
ENDROOT
BRANCH   3  10
ATOM      5  N   UNL     1      92.679   4.468  27.969  0.00  0.00    +0.000 NA
ATOM      6  N   UNL     1      89.421   5.289  29.470  0.00  0.00    +0.000 N 
ATOM      7  N   UNL     1      92.259   6.862  28.101  0.00  0.00    +0.000 NA
ATOM      8  N   UNL     1      94.226   6.021  27.205  0.00  0.00    +0.000 N 
ATOM      9  N   UNL     1      95.944   7.157  26.375  0.00  0.00    +0.000 NA
ATOM     10  C   UNL     1      91.485   4.185  28.534  0.00  0.00    +0.000 A 
ATOM     11  C   UNL     1      90.663   5.238  28.891  0.00  0.00    +0.000 A 
ATOM     12  C   UNL     1      91.067   6.551  28.667  0.00  0.00    +0.000 A 
ATOM     13  C   UNL     1      92.989   5.771  27.789  0.00  0.00    +0.000 A 
ATOM     14  C   UNL     1      90.033   7.402  29.127  0.00  0.00    +0.000 A 
ATOM     15  C   UNL     1      89.030   6.595  29.618  0.00  0.00    +0.000 A 
ATOM     16  C   UNL     1      95.135   5.085  26.805  0.00  0.00    +0.000 A 
ATOM     17  C   UNL     1      94.754   7.251  26.926  0.00  0.00    +0.000 A 
ATOM     18  C   UNL     1      96.187   5.809  26.295  0.00  0.00    +0.000 A 
ATOM     19  H   UNL     1      88.873   4.485  29.748  0.00  0.00    +0.000 HD
ENDBRANCH   3  10
BRANCH   2  20
ATOM     20  C   UNL     1      90.979   0.524  27.664  0.00  0.00    +0.000 C 
ATOM     21  C   UNL     1      90.674  -2.104  26.354  0.00  0.00    +0.000 C 
ATOM     22  C   UNL     1      89.786   0.228  26.752  0.00  0.00    +0.000 C 
ATOM     23  C   UNL     1      92.200  -0.318  27.284  0.00  0.00    +0.000 C 
ATOM     24  C   UNL     1      89.457  -1.263  26.732  0.00  0.00    +0.000 C 
ATOM     25  C   UNL     1      91.864  -1.806  27.264  0.00  0.00    +0.000 C 
BRANCH  21  26
ATOM     26  O   UNL     1      90.352  -3.486  26.462  0.00  0.00    +0.000 OA
BRANCH  26  27
ATOM     27  C   UNL     1      90.999  -4.086  27.575  0.00  0.00    +0.000 C 
BRANCH  27  28
ATOM     28  C   UNL     1      89.978  -4.868  28.379  0.00  0.00    +0.000 C 
BRANCH  28  29
ATOM     29  O   UNL     1      90.341  -4.828  29.754  0.00  0.00    +0.000 OA
ATOM     30  C   UNL     1      89.327  -5.388  30.576  0.00  0.00    +0.000 C 
ENDBRANCH  28  29
ENDBRANCH  27  28
ENDBRANCH  26  27
ENDBRANCH  21  26
ENDBRANCH   2  20
TORSDOF 6
ENDMDL
MODEL 6
REMARK VINA RESULT:      -6.1      1.956      4.220
REMARK  Name = 155598690
REMARK  7 active torsions:
REMARK  status: ('A' for Active; 'I' for Inactive)
REMARK    1  A    between atoms: O_1  and  C_11
REMARK    2  A    between atoms: O_1  and  C_16
REMARK    3  A    between atoms: O_3  and  C_19
REMARK    4  A    between atoms: O_3  and  C_25
REMARK    5  A    between atoms: N_4  and  C_10
REMARK    6  A    between atoms: C_16  and  C_19
REMARK    7  A    between atoms: C_17  and  C_18
REMARK                            x       y       z     vdW  Elec       q    Type
REMARK                         _______ _______ _______ _____ _____    ______ ____
ROOT
ATOM      1  O   UNL     1      96.086   0.687  29.046  0.00  0.00    +0.000 OA
ATOM      2  N   UNL     1      95.756  -0.403  27.026  0.00  0.00    +0.000 N 
ATOM      3  C   UNL     1      95.385   0.427  28.072  0.00  0.00    +0.000 C 
ATOM      4  H   UNL     1      95.083  -0.600  26.290  0.00  0.00    +0.000 HD
ENDROOT
BRANCH   3  10
ATOM      5  N   UNL     1      93.004   0.190  27.641  0.00  0.00    +0.000 NA
ATOM      6  N   UNL     1      94.520   3.405  28.594  0.00  0.00    +0.000 N 
ATOM      7  N   UNL     1      91.391   2.006  27.788  0.00  0.00    +0.000 NA
ATOM      8  N   UNL     1      90.749  -0.146  27.208  0.00  0.00    +0.000 N 
ATOM      9  N   UNL     1      88.711  -0.879  26.719  0.00  0.00    +0.000 NA
ATOM     10  C   UNL     1      94.021   1.010  27.985  0.00  0.00    +0.000 A 
ATOM     11  C   UNL     1      93.735   2.340  28.233  0.00  0.00    +0.000 A 
ATOM     12  C   UNL     1      92.428   2.808  28.130  0.00  0.00    +0.000 A 
ATOM     13  C   UNL     1      91.768   0.730  27.565  0.00  0.00    +0.000 A 
ATOM     14  C   UNL     1      92.443   4.190  28.439  0.00  0.00    +0.000 A 
ATOM     15  C   UNL     1      93.747   4.531  28.721  0.00  0.00    +0.000 A 
ATOM     16  C   UNL     1      90.885  -1.477  26.934  0.00  0.00    +0.000 A 
ATOM     17  C   UNL     1      89.426   0.168  27.066  0.00  0.00    +0.000 A 
ATOM     18  C   UNL     1      89.614  -1.908  26.635  0.00  0.00    +0.000 A 
ATOM     19  H   UNL     1      95.520   3.369  28.744  0.00  0.00    +0.000 HD
ENDBRANCH   3  10
BRANCH   2  20
ATOM     20  C   UNL     1      97.038  -1.065  26.980  0.00  0.00    +0.000 C 
ATOM     21  C   UNL     1      99.304  -2.248  25.502  0.00  0.00    +0.000 C 
ATOM     22  C   UNL     1      96.913  -2.430  26.298  0.00  0.00    +0.000 C 
ATOM     23  C   UNL     1      98.077  -0.182  26.283  0.00  0.00    +0.000 C 
ATOM     24  C   UNL     1      98.266  -3.127  26.196  0.00  0.00    +0.000 C 
ATOM     25  C   UNL     1      99.426  -0.886  26.182  0.00  0.00    +0.000 C 
BRANCH  21  26
ATOM     26  O   UNL     1     100.574  -2.890  25.533  0.00  0.00    +0.000 OA
BRANCH  26  27
ATOM     27  C   UNL     1     101.060  -3.015  26.862  0.00  0.00    +0.000 C 
BRANCH  27  28
ATOM     28  C   UNL     1     101.662  -4.396  27.040  0.00  0.00    +0.000 C 
BRANCH  28  29
ATOM     29  O   UNL     1     101.652  -4.731  28.423  0.00  0.00    +0.000 OA
ATOM     30  C   UNL     1     100.347  -4.624  28.974  0.00  0.00    +0.000 C 
ENDBRANCH  28  29
ENDBRANCH  27  28
ENDBRANCH  26  27
ENDBRANCH  21  26
ENDBRANCH   2  20
TORSDOF 6
ENDMDL
MODEL 7
REMARK VINA RESULT:      -6.0      4.145      8.833
REMARK  Name = 155598690
REMARK  7 active torsions:
REMARK  status: ('A' for Active; 'I' for Inactive)
REMARK    1  A    between atoms: O_1  and  C_11
REMARK    2  A    between atoms: O_1  and  C_16
REMARK    3  A    between atoms: O_3  and  C_19
REMARK    4  A    between atoms: O_3  and  C_25
REMARK    5  A    between atoms: N_4  and  C_10
REMARK    6  A    between atoms: C_16  and  C_19
REMARK    7  A    between atoms: C_17  and  C_18
REMARK                            x       y       z     vdW  Elec       q    Type
REMARK                         _______ _______ _______ _____ _____    ______ ____
ROOT
ATOM      1  O   UNL     1      94.521  -0.034  28.250  0.00  0.00    +0.000 OA
ATOM      2  N   UNL     1      95.639   0.829  26.411  0.00  0.00    +0.000 N 
ATOM      3  C   UNL     1      95.361  -0.141  27.361  0.00  0.00    +0.000 C 
ATOM      4  H   UNL     1      96.392   0.669  25.747  0.00  0.00    +0.000 HD
ENDROOT
BRANCH   3  10
ATOM      5  N   UNL     1      97.367  -1.312  26.643  0.00  0.00    +0.000 NA
ATOM      6  N   UNL     1      94.668  -2.988  28.502  0.00  0.00    +0.000 N 
ATOM      7  N   UNL     1      97.810  -3.668  27.063  0.00  0.00    +0.000 NA
ATOM      8  N   UNL     1      99.318  -2.335  25.913  0.00  0.00    +0.000 N 
ATOM      9  N   UNL     1     101.281  -2.919  25.055  0.00  0.00    +0.000 NA
ATOM     10  C   UNL     1      96.176  -1.380  27.279  0.00  0.00    +0.000 A 
ATOM     11  C   UNL     1      95.788  -2.595  27.814  0.00  0.00    +0.000 A 
ATOM     12  C   UNL     1      96.611  -3.710  27.695  0.00  0.00    +0.000 A 
ATOM     13  C   UNL     1      98.101  -2.445  26.575  0.00  0.00    +0.000 A 
ATOM     14  C   UNL     1      95.959  -4.794  28.332  0.00  0.00    +0.000 A 
ATOM     15  C   UNL     1      94.762  -4.320  28.821  0.00  0.00    +0.000 A 
ATOM     16  C   UNL     1      99.827  -1.205  25.339  0.00  0.00    +0.000 A 
ATOM     17  C   UNL     1     100.226  -3.338  25.718  0.00  0.00    +0.000 A 
ATOM     18  C   UNL     1     101.038  -1.590  24.815  0.00  0.00    +0.000 A 
ATOM     19  H   UNL     1      93.889  -2.389  28.741  0.00  0.00    +0.000 HD
ENDBRANCH   3  10
BRANCH   2  20
ATOM     20  C   UNL     1      94.950   2.097  26.375  0.00  0.00    +0.000 C 
ATOM     21  C   UNL     1      94.837   4.981  25.749  0.00  0.00    +0.000 C 
ATOM     22  C   UNL     1      95.674   3.126  27.248  0.00  0.00    +0.000 C 
ATOM     23  C   UNL     1      94.800   2.590  24.933  0.00  0.00    +0.000 C 
ATOM     24  C   UNL     1      94.988   4.488  27.187  0.00  0.00    +0.000 C 
ATOM     25  C   UNL     1      94.117   3.953  24.880  0.00  0.00    +0.000 C 
BRANCH  21  26
ATOM     26  O   UNL     1      94.093   6.193  25.735  0.00  0.00    +0.000 OA
BRANCH  26  27
ATOM     27  C   UNL     1      93.389   6.387  26.953  0.00  0.00    +0.000 C 
BRANCH  27  28
ATOM     28  C   UNL     1      92.840   7.800  26.989  0.00  0.00    +0.000 C 
BRANCH  28  29
ATOM     29  O   UNL     1      91.419   7.745  27.025  0.00  0.00    +0.000 OA
ATOM     30  C   UNL     1      90.957   6.961  28.117  0.00  0.00    +0.000 C 
ENDBRANCH  28  29
ENDBRANCH  27  28
ENDBRANCH  26  27
ENDBRANCH  21  26
ENDBRANCH   2  20
TORSDOF 6
ENDMDL
MODEL 8
REMARK VINA RESULT:      -5.9      1.720      3.785
REMARK  Name = 155598690
REMARK  7 active torsions:
REMARK  status: ('A' for Active; 'I' for Inactive)
REMARK    1  A    between atoms: O_1  and  C_11
REMARK    2  A    between atoms: O_1  and  C_16
REMARK    3  A    between atoms: O_3  and  C_19
REMARK    4  A    between atoms: O_3  and  C_25
REMARK    5  A    between atoms: N_4  and  C_10
REMARK    6  A    between atoms: C_16  and  C_19
REMARK    7  A    between atoms: C_17  and  C_18
REMARK                            x       y       z     vdW  Elec       q    Type
REMARK                         _______ _______ _______ _____ _____    ______ ____
ROOT
ATOM      1  O   UNL     1      95.483   1.512  25.643  0.00  0.00    +0.000 OA
ATOM      2  N   UNL     1      95.663   0.206  27.551  0.00  0.00    +0.000 N 
ATOM      3  C   UNL     1      95.110   1.212  26.774  0.00  0.00    +0.000 C 
ATOM      4  H   UNL     1      95.320   0.069  28.498  0.00  0.00    +0.000 HD
ENDROOT
BRANCH   3  10
ATOM      5  N   UNL     1      92.768   1.425  27.391  0.00  0.00    +0.000 NA
ATOM      6  N   UNL     1      95.249   4.034  28.155  0.00  0.00    +0.000 N 
ATOM      7  N   UNL     1      91.820   3.338  28.557  0.00  0.00    +0.000 NA
ATOM      8  N   UNL     1      90.514   1.527  27.934  0.00  0.00    +0.000 N 
ATOM      9  N   UNL     1      88.337   1.235  28.261  0.00  0.00    +0.000 NA
ATOM     10  C   UNL     1      94.001   1.978  27.399  0.00  0.00    +0.000 A 
ATOM     11  C   UNL     1      94.158   3.220  27.986  0.00  0.00    +0.000 A 
ATOM     12  C   UNL     1      93.066   3.872  28.552  0.00  0.00    +0.000 A 
ATOM     13  C   UNL     1      91.767   2.129  27.963  0.00  0.00    +0.000 A 
ATOM     14  C   UNL     1      93.526   5.107  29.069  0.00  0.00    +0.000 A 
ATOM     15  C   UNL     1      94.877   5.180  28.810  0.00  0.00    +0.000 A 
ATOM     16  C   UNL     1      90.214   0.310  27.391  0.00  0.00    +0.000 A 
ATOM     17  C   UNL     1      89.357   2.044  28.445  0.00  0.00    +0.000 A 
ATOM     18  C   UNL     1      88.865   0.151  27.605  0.00  0.00    +0.000 A 
ATOM     19  H   UNL     1      96.188   3.823  27.843  0.00  0.00    +0.000 HD
ENDBRANCH   3  10
BRANCH   2  20
ATOM     20  C   UNL     1      96.763  -0.608  27.095  0.00  0.00    +0.000 C 
ATOM     21  C   UNL     1      98.816  -2.687  27.524  0.00  0.00    +0.000 C 
ATOM     22  C   UNL     1      98.021  -0.321  27.919  0.00  0.00    +0.000 C 
ATOM     23  C   UNL     1      96.391  -2.093  27.136  0.00  0.00    +0.000 C 
ATOM     24  C   UNL     1      99.186  -1.206  27.484  0.00  0.00    +0.000 C 
ATOM     25  C   UNL     1      97.561  -2.972  26.703  0.00  0.00    +0.000 C 
BRANCH  21  26
ATOM     26  O   UNL     1      99.889  -3.463  27.001  0.00  0.00    +0.000 OA
BRANCH  26  27
ATOM     27  C   UNL     1     100.969  -2.642  26.583  0.00  0.00    +0.000 C 
BRANCH  27  28
ATOM     28  C   UNL     1     101.874  -3.442  25.666  0.00  0.00    +0.000 C 
BRANCH  28  29
ATOM     29  O   UNL     1     101.812  -2.891  24.357  0.00  0.00    +0.000 OA
ATOM     30  C   UNL     1     101.272  -1.576  24.371  0.00  0.00    +0.000 C 
ENDBRANCH  28  29
ENDBRANCH  27  28
ENDBRANCH  26  27
ENDBRANCH  21  26
ENDBRANCH   2  20
TORSDOF 6
ENDMDL
MODEL 9
REMARK VINA RESULT:      -5.9      3.410      9.499
REMARK  Name = 155598690
REMARK  7 active torsions:
REMARK  status: ('A' for Active; 'I' for Inactive)
REMARK    1  A    between atoms: O_1  and  C_11
REMARK    2  A    between atoms: O_1  and  C_16
REMARK    3  A    between atoms: O_3  and  C_19
REMARK    4  A    between atoms: O_3  and  C_25
REMARK    5  A    between atoms: N_4  and  C_10
REMARK    6  A    between atoms: C_16  and  C_19
REMARK    7  A    between atoms: C_17  and  C_18
REMARK                            x       y       z     vdW  Elec       q    Type
REMARK                         _______ _______ _______ _____ _____    ______ ____
ROOT
ATOM      1  O   UNL     1      96.598   0.140  26.127  0.00  0.00    +0.000 OA
ATOM      2  N   UNL     1      95.209  -1.325  27.267  0.00  0.00    +0.000 N 
ATOM      3  C   UNL     1      96.432  -0.880  26.789  0.00  0.00    +0.000 C 
ATOM      4  H   UNL     1      95.165  -2.212  27.762  0.00  0.00    +0.000 HD
ENDROOT
BRANCH   3  10
ATOM      5  N   UNL     1      97.522  -2.544  28.186  0.00  0.00    +0.000 NA
ATOM      6  N   UNL     1      99.152  -1.086  25.226  0.00  0.00    +0.000 N 
ATOM      7  N   UNL     1      99.760  -3.417  27.795  0.00  0.00    +0.000 NA
ATOM      8  N   UNL     1      98.471  -4.136  29.583  0.00  0.00    +0.000 N 
ATOM      9  N   UNL     1      99.003  -5.630  31.138  0.00  0.00    +0.000 NA
ATOM     10  C   UNL     1      97.602  -1.740  27.103  0.00  0.00    +0.000 A 
ATOM     11  C   UNL     1      98.764  -1.763  26.353  0.00  0.00    +0.000 A 
ATOM     12  C   UNL     1      99.816  -2.600  26.715  0.00  0.00    +0.000 A 
ATOM     13  C   UNL     1      98.592  -3.323  28.461  0.00  0.00    +0.000 A 
ATOM     14  C   UNL     1     100.856  -2.410  25.773  0.00  0.00    +0.000 A 
ATOM     15  C   UNL     1     100.419  -1.470  24.866  0.00  0.00    +0.000 A 
ATOM     16  C   UNL     1      97.388  -4.216  30.412  0.00  0.00    +0.000 A 
ATOM     17  C   UNL     1      99.415  -5.003  30.058  0.00  0.00    +0.000 A 
ATOM     18  C   UNL     1      97.740  -5.143  31.364  0.00  0.00    +0.000 A 
ATOM     19  H   UNL     1      98.592  -0.403  24.732  0.00  0.00    +0.000 HD
ENDBRANCH   3  10
BRANCH   2  20
ATOM     20  C   UNL     1      93.977  -0.614  27.023  0.00  0.00    +0.000 C 
ATOM     21  C   UNL     1      91.077  -0.219  27.418  0.00  0.00    +0.000 C 
ATOM     22  C   UNL     1      92.954  -1.530  26.347  0.00  0.00    +0.000 C 
ATOM     23  C   UNL     1      93.427  -0.022  28.324  0.00  0.00    +0.000 C 
ATOM     24  C   UNL     1      91.626  -0.811  26.121  0.00  0.00    +0.000 C 
ATOM     25  C   UNL     1      92.099   0.693  28.092  0.00  0.00    +0.000 C 
BRANCH  21  26
ATOM     26  O   UNL     1      89.904   0.537  27.140  0.00  0.00    +0.000 OA
BRANCH  26  27
ATOM     27  C   UNL     1      89.239   0.923  28.333  0.00  0.00    +0.000 C 
BRANCH  27  28
ATOM     28  C   UNL     1      88.890   2.397  28.251  0.00  0.00    +0.000 C 
BRANCH  28  29
ATOM     29  O   UNL     1      89.814   3.137  29.039  0.00  0.00    +0.000 OA
ATOM     30  C   UNL     1      89.764   4.524  28.734  0.00  0.00    +0.000 C 
ENDBRANCH  28  29
ENDBRANCH  27  28
ENDBRANCH  26  27
ENDBRANCH  21  26
ENDBRANCH   2  20
TORSDOF 6
ENDMDL
