MODEL 1
REMARK VINA RESULT:      -8.1      0.000      0.000
REMARK  Name = 441667
REMARK  12 active torsions:
REMARK  status: ('A' for Active; 'I' for Inactive)
REMARK    1  A    between atoms: O_2  and  C_16
REMARK    2  A    between atoms: O_2  and  C_18
REMARK    3  A    between atoms: O_3  and  C_12
REMARK    4  A    between atoms: O_4  and  C_13
REMARK    5  A    between atoms: O_5  and  C_14
REMARK    6  A    between atoms: O_6  and  C_17
REMARK    7  A    between atoms: O_8  and  C_24
REMARK    8  A    between atoms: O_9  and  C_29
REMARK    9  A    between atoms: O_10  and  C_30
REMARK   10  A    between atoms: O_11  and  C_32
REMARK   11  A    between atoms: C_15  and  C_17
REMARK   12  A    between atoms: C_19  and  C_23
REMARK                            x       y       z     vdW  Elec       q    Type
REMARK                         _______ _______ _______ _____ _____    ______ ____
ROOT
ATOM      1  O   UNL     1      96.314   0.172  26.268  0.00  0.00    +0.000 OA
ATOM      2  C   UNL     1      94.712   0.349  28.149  0.00  0.00    +0.000 A 
ATOM      3  C   UNL     1      95.476   0.877  26.975  0.00  0.00    +0.000 A 
ATOM      4  C   UNL     1      94.958  -0.918  28.504  0.00  0.00    +0.000 A 
ATOM      5  C   UNL     1      95.918  -1.727  27.761  0.00  0.00    +0.000 A 
ATOM      6  C   UNL     1      96.559  -1.159  26.656  0.00  0.00    +0.000 A 
ATOM      7  C   UNL     1      96.195  -3.050  28.117  0.00  0.00    +0.000 A 
ATOM      8  C   UNL     1      97.472  -1.907  25.911  0.00  0.00    +0.000 A 
ATOM      9  C   UNL     1      97.109  -3.797  27.371  0.00  0.00    +0.000 A 
ATOM     10  C   UNL     1      97.746  -3.227  26.269  0.00  0.00    +0.000 A 
ENDROOT
BRANCH   3  11
ATOM     11  C   UNL     1      95.237   2.286  26.581  0.00  0.00    +0.000 A 
ATOM     12  C   UNL     1      95.675   3.315  27.408  0.00  0.00    +0.000 A 
ATOM     13  C   UNL     1      94.578   2.564  25.389  0.00  0.00    +0.000 A 
ATOM     14  C   UNL     1      95.450   4.641  27.036  0.00  0.00    +0.000 A 
ATOM     15  C   UNL     1      94.353   3.890  25.019  0.00  0.00    +0.000 A 
ATOM     16  C   UNL     1      94.789   4.928  25.842  0.00  0.00    +0.000 A 
BRANCH  14  17
ATOM     17  O   UNL     1      95.880   5.645  27.848  0.00  0.00    +0.000 OA
ATOM     18  H   UNL     1      96.065   5.269  28.727  0.00  0.00    +0.000 HD
ENDBRANCH  14  17
BRANCH  16  19
ATOM     19  O   UNL     1      94.562   6.219  25.469  0.00  0.00    +0.000 OA
ATOM     20  H   UNL     1      93.805   6.244  24.859  0.00  0.00    +0.000 HD
ENDBRANCH  16  19
ENDBRANCH   3  11
BRANCH   7  21
ATOM     21  O   UNL     1      95.591  -3.645  29.185  0.00  0.00    +0.000 OA
ATOM     22  H   UNL     1      95.571  -4.608  29.070  0.00  0.00    +0.000 HD
ENDBRANCH   7  21
BRANCH  10  23
ATOM     23  O   UNL     1      98.636  -3.958  25.544  0.00  0.00    +0.000 OA
ATOM     24  H   UNL     1      98.289  -4.860  25.436  0.00  0.00    +0.000 HD
ENDBRANCH  10  23
BRANCH   2  25
ATOM     25  O   UNL     1      93.772   1.134  28.777  0.00  0.00    +0.000 OA
BRANCH  25  31
ATOM     26  O   UNL     1      92.306   0.055  27.318  0.00  0.00    +0.000 OA
ATOM     27  C   UNL     1      90.027   1.284  28.562  0.00  0.00    +0.000 C 
ATOM     28  C   UNL     1      89.937   0.562  27.217  0.00  0.00    +0.000 C 
ATOM     29  C   UNL     1      91.459   1.735  28.852  0.00  0.00    +0.000 C 
ATOM     30  C   UNL     1      91.015  -0.520  27.109  0.00  0.00    +0.000 C 
ATOM     31  C   UNL     1      92.457   0.600  28.626  0.00  0.00    +0.000 C 
BRANCH  27  32
ATOM     32  O   UNL     1      89.170   2.426  28.508  0.00  0.00    +0.000 OA
ATOM     33  H   UNL     1      88.249   2.113  28.504  0.00  0.00    +0.000 HD
ENDBRANCH  27  32
BRANCH  28  34
ATOM     34  O   UNL     1      88.652  -0.040  27.090  0.00  0.00    +0.000 OA
ATOM     35  H   UNL     1      88.568  -0.375  26.182  0.00  0.00    +0.000 HD
ENDBRANCH  28  34
BRANCH  29  36
ATOM     36  O   UNL     1      91.557   2.151  30.215  0.00  0.00    +0.000 OA
ATOM     37  H   UNL     1      92.104   1.496  30.681  0.00  0.00    +0.000 HD
ENDBRANCH  29  36
BRANCH  30  38
ATOM     38  C   UNL     1      91.020  -1.176  25.731  0.00  0.00    +0.000 C 
BRANCH  38  39
ATOM     39  O   UNL     1      90.183  -2.317  25.773  0.00  0.00    +0.000 OA
ATOM     40  H   UNL     1      89.276  -2.026  25.571  0.00  0.00    +0.000 HD
ENDBRANCH  38  39
ENDBRANCH  30  38
ENDBRANCH  25  31
ENDBRANCH   2  25
TORSDOF 12
ENDMDL
MODEL 2
REMARK VINA RESULT:      -8.0      1.718      2.117
REMARK  Name = 441667
REMARK  12 active torsions:
REMARK  status: ('A' for Active; 'I' for Inactive)
REMARK    1  A    between atoms: O_2  and  C_16
REMARK    2  A    between atoms: O_2  and  C_18
REMARK    3  A    between atoms: O_3  and  C_12
REMARK    4  A    between atoms: O_4  and  C_13
REMARK    5  A    between atoms: O_5  and  C_14
REMARK    6  A    between atoms: O_6  and  C_17
REMARK    7  A    between atoms: O_8  and  C_24
REMARK    8  A    between atoms: O_9  and  C_29
REMARK    9  A    between atoms: O_10  and  C_30
REMARK   10  A    between atoms: O_11  and  C_32
REMARK   11  A    between atoms: C_15  and  C_17
REMARK   12  A    between atoms: C_19  and  C_23
REMARK                            x       y       z     vdW  Elec       q    Type
REMARK                         _______ _______ _______ _____ _____    ______ ____
ROOT
ATOM      1  O   UNL     1      96.428   0.474  28.397  0.00  0.00    +0.000 OA
ATOM      2  C   UNL     1      94.156   0.941  29.267  0.00  0.00    +0.000 A 
ATOM      3  C   UNL     1      95.387   1.256  28.475  0.00  0.00    +0.000 A 
ATOM      4  C   UNL     1      94.169  -0.200  29.969  0.00  0.00    +0.000 A 
ATOM      5  C   UNL     1      95.331  -1.081  29.936  0.00  0.00    +0.000 A 
ATOM      6  C   UNL     1      96.423  -0.721  29.139  0.00  0.00    +0.000 A 
ATOM      7  C   UNL     1      95.370  -2.274  30.664  0.00  0.00    +0.000 A 
ATOM      8  C   UNL     1      97.546  -1.547  29.070  0.00  0.00    +0.000 A 
ATOM      9  C   UNL     1      96.495  -3.098  30.595  0.00  0.00    +0.000 A 
ATOM     10  C   UNL     1      97.581  -2.735  29.798  0.00  0.00    +0.000 A 
ENDROOT
BRANCH   3  11
ATOM     11  C   UNL     1      95.403   2.526  27.713  0.00  0.00    +0.000 A 
ATOM     12  C   UNL     1      95.066   2.524  26.364  0.00  0.00    +0.000 A 
ATOM     13  C   UNL     1      95.754   3.709  28.355  0.00  0.00    +0.000 A 
ATOM     14  C   UNL     1      95.080   3.721  25.647  0.00  0.00    +0.000 A 
ATOM     15  C   UNL     1      95.768   4.905  27.637  0.00  0.00    +0.000 A 
ATOM     16  C   UNL     1      95.431   4.911  26.284  0.00  0.00    +0.000 A 
BRANCH  14  17
ATOM     17  O   UNL     1      94.749   3.713  24.326  0.00  0.00    +0.000 OA
ATOM     18  H   UNL     1      94.796   2.795  24.005  0.00  0.00    +0.000 HD
ENDBRANCH  14  17
BRANCH  16  19
ATOM     19  O   UNL     1      95.451   6.086  25.594  0.00  0.00    +0.000 OA
ATOM     20  H   UNL     1      94.759   6.672  25.947  0.00  0.00    +0.000 HD
ENDBRANCH  16  19
ENDBRANCH   3  11
BRANCH   7  21
ATOM     21  O   UNL     1      94.327  -2.665  31.451  0.00  0.00    +0.000 OA
ATOM     22  H   UNL     1      93.501  -2.665  30.943  0.00  0.00    +0.000 HD
ENDBRANCH   7  21
BRANCH  10  23
ATOM     23  O   UNL     1      98.675  -3.542  29.732  0.00  0.00    +0.000 OA
ATOM     24  H   UNL     1      99.292  -3.294  30.443  0.00  0.00    +0.000 HD
ENDBRANCH  10  23
BRANCH   2  25
ATOM     25  O   UNL     1      93.063   1.775  29.215  0.00  0.00    +0.000 OA
BRANCH  25  31
ATOM     26  O   UNL     1      92.016   0.429  27.624  0.00  0.00    +0.000 OA
ATOM     27  C   UNL     1      89.421   1.398  28.385  0.00  0.00    +0.000 C 
ATOM     28  C   UNL     1      89.654   0.599  27.103  0.00  0.00    +0.000 C 
ATOM     29  C   UNL     1      90.714   2.056  28.869  0.00  0.00    +0.000 C 
ATOM     30  C   UNL     1      90.862  -0.329  27.253  0.00  0.00    +0.000 C 
ATOM     31  C   UNL     1      91.871   1.058  28.894  0.00  0.00    +0.000 C 
BRANCH  27  32
ATOM     32  O   UNL     1      88.449   2.407  28.107  0.00  0.00    +0.000 OA
ATOM     33  H   UNL     1      87.817   2.430  28.847  0.00  0.00    +0.000 HD
ENDBRANCH  27  32
BRANCH  28  34
ATOM     34  O   UNL     1      88.495  -0.179  26.815  0.00  0.00    +0.000 OA
ATOM     35  H   UNL     1      87.811   0.420  26.473  0.00  0.00    +0.000 HD
ENDBRANCH  28  34
BRANCH  29  36
ATOM     36  O   UNL     1      90.525   2.555  30.194  0.00  0.00    +0.000 OA
ATOM     37  H   UNL     1      91.302   2.293  30.717  0.00  0.00    +0.000 HD
ENDBRANCH  29  36
BRANCH  30  38
ATOM     38  C   UNL     1      91.185  -1.051  25.948  0.00  0.00    +0.000 C 
BRANCH  38  39
ATOM     39  O   UNL     1      90.224  -2.072  25.748  0.00  0.00    +0.000 OA
ATOM     40  H   UNL     1      89.462  -1.877  26.323  0.00  0.00    +0.000 HD
ENDBRANCH  38  39
ENDBRANCH  30  38
ENDBRANCH  25  31
ENDBRANCH   2  25
TORSDOF 12
ENDMDL
MODEL 3
REMARK VINA RESULT:      -7.9      1.892      5.975
REMARK  Name = 441667
REMARK  12 active torsions:
REMARK  status: ('A' for Active; 'I' for Inactive)
REMARK    1  A    between atoms: O_2  and  C_16
REMARK    2  A    between atoms: O_2  and  C_18
REMARK    3  A    between atoms: O_3  and  C_12
REMARK    4  A    between atoms: O_4  and  C_13
REMARK    5  A    between atoms: O_5  and  C_14
REMARK    6  A    between atoms: O_6  and  C_17
REMARK    7  A    between atoms: O_8  and  C_24
REMARK    8  A    between atoms: O_9  and  C_29
REMARK    9  A    between atoms: O_10  and  C_30
REMARK   10  A    between atoms: O_11  and  C_32
REMARK   11  A    between atoms: C_15  and  C_17
REMARK   12  A    between atoms: C_19  and  C_23
REMARK                            x       y       z     vdW  Elec       q    Type
REMARK                         _______ _______ _______ _____ _____    ______ ____
ROOT
ATOM      1  O   UNL     1      92.051   1.488  26.449  0.00  0.00    +0.000 OA
ATOM      2  C   UNL     1      94.165   0.213  26.651  0.00  0.00    +0.000 A 
ATOM      3  C   UNL     1      93.354   1.458  26.468  0.00  0.00    +0.000 A 
ATOM      4  C   UNL     1      93.485  -0.937  26.754  0.00  0.00    +0.000 A 
ATOM      5  C   UNL     1      92.027  -0.946  26.699  0.00  0.00    +0.000 A 
ATOM      6  C   UNL     1      91.353   0.271  26.560  0.00  0.00    +0.000 A 
ATOM      7  C   UNL     1      91.296  -2.134  26.798  0.00  0.00    +0.000 A 
ATOM      8  C   UNL     1      89.959   0.303  26.520  0.00  0.00    +0.000 A 
ATOM      9  C   UNL     1      89.901  -2.101  26.756  0.00  0.00    +0.000 A 
ATOM     10  C   UNL     1      89.233  -0.884  26.618  0.00  0.00    +0.000 A 
ENDROOT
BRANCH   3  11
ATOM     11  C   UNL     1      94.089   2.737  26.326  0.00  0.00    +0.000 A 
ATOM     12  C   UNL     1      94.618   3.355  27.453  0.00  0.00    +0.000 A 
ATOM     13  C   UNL     1      94.243   3.306  25.067  0.00  0.00    +0.000 A 
ATOM     14  C   UNL     1      95.311   4.559  27.319  0.00  0.00    +0.000 A 
ATOM     15  C   UNL     1      94.935   4.510  24.934  0.00  0.00    +0.000 A 
ATOM     16  C   UNL     1      95.469   5.136  26.059  0.00  0.00    +0.000 A 
BRANCH  14  17
ATOM     17  O   UNL     1      95.827   5.160  28.426  0.00  0.00    +0.000 OA
ATOM     18  H   UNL     1      95.122   5.684  28.847  0.00  0.00    +0.000 HD
ENDBRANCH  14  17
BRANCH  16  19
ATOM     19  O   UNL     1      96.141   6.312  25.916  0.00  0.00    +0.000 OA
ATOM     20  H   UNL     1      96.883   6.332  26.545  0.00  0.00    +0.000 HD
ENDBRANCH  16  19
ENDBRANCH   3  11
BRANCH   7  21
ATOM     21  O   UNL     1      91.911  -3.343  26.938  0.00  0.00    +0.000 OA
ATOM     22  H   UNL     1      91.389  -3.924  27.513  0.00  0.00    +0.000 HD
ENDBRANCH   7  21
BRANCH  10  23
ATOM     23  O   UNL     1      87.873  -0.855  26.579  0.00  0.00    +0.000 OA
ATOM     24  H   UNL     1      87.590  -0.510  25.714  0.00  0.00    +0.000 HD
ENDBRANCH  10  23
BRANCH   2  25
ATOM     25  O   UNL     1      95.535   0.283  26.759  0.00  0.00    +0.000 OA
BRANCH  25  31
ATOM     26  O   UNL     1      95.799  -1.040  28.662  0.00  0.00    +0.000 OA
ATOM     27  C   UNL     1      98.284  -2.099  27.685  0.00  0.00    +0.000 C 
ATOM     28  C   UNL     1      97.830  -2.278  29.134  0.00  0.00    +0.000 C 
ATOM     29  C   UNL     1      97.594  -0.900  27.033  0.00  0.00    +0.000 C 
ATOM     30  C   UNL     1      96.303  -2.250  29.231  0.00  0.00    +0.000 C 
ATOM     31  C   UNL     1      96.085  -0.931  27.269  0.00  0.00    +0.000 C 
BRANCH  27  32
ATOM     32  O   UNL     1      99.698  -1.891  27.687  0.00  0.00    +0.000 OA
ATOM     33  H   UNL     1      99.883  -1.077  28.189  0.00  0.00    +0.000 HD
ENDBRANCH  27  32
BRANCH  28  34
ATOM     34  O   UNL     1      98.311  -3.525  29.629  0.00  0.00    +0.000 OA
ATOM     35  H   UNL     1      99.206  -3.660  29.275  0.00  0.00    +0.000 HD
ENDBRANCH  28  34
BRANCH  29  36
ATOM     36  O   UNL     1      97.826  -0.929  25.624  0.00  0.00    +0.000 OA
ATOM     37  H   UNL     1      98.607  -1.487  25.469  0.00  0.00    +0.000 HD
ENDBRANCH  29  36
BRANCH  30  38
ATOM     38  C   UNL     1      95.828  -2.310  30.680  0.00  0.00    +0.000 C 
BRANCH  38  39
ATOM     39  O   UNL     1      94.913  -1.252  30.898  0.00  0.00    +0.000 OA
ATOM     40  H   UNL     1      94.018  -1.598  30.736  0.00  0.00    +0.000 HD
ENDBRANCH  38  39
ENDBRANCH  30  38
ENDBRANCH  25  31
ENDBRANCH   2  25
TORSDOF 12
ENDMDL
MODEL 4
REMARK VINA RESULT:      -7.4      2.145      6.451
REMARK  Name = 441667
REMARK  12 active torsions:
REMARK  status: ('A' for Active; 'I' for Inactive)
REMARK    1  A    between atoms: O_2  and  C_16
REMARK    2  A    between atoms: O_2  and  C_18
REMARK    3  A    between atoms: O_3  and  C_12
REMARK    4  A    between atoms: O_4  and  C_13
REMARK    5  A    between atoms: O_5  and  C_14
REMARK    6  A    between atoms: O_6  and  C_17
REMARK    7  A    between atoms: O_8  and  C_24
REMARK    8  A    between atoms: O_9  and  C_29
REMARK    9  A    between atoms: O_10  and  C_30
REMARK   10  A    between atoms: O_11  and  C_32
REMARK   11  A    between atoms: C_15  and  C_17
REMARK   12  A    between atoms: C_19  and  C_23
REMARK                            x       y       z     vdW  Elec       q    Type
REMARK                         _______ _______ _______ _____ _____    ______ ____
ROOT
ATOM      1  O   UNL     1      91.995   1.979  28.623  0.00  0.00    +0.000 OA
ATOM      2  C   UNL     1      93.553   0.771  27.123  0.00  0.00    +0.000 A 
ATOM      3  C   UNL     1      93.202   1.782  28.170  0.00  0.00    +0.000 A 
ATOM      4  C   UNL     1      92.537   0.071  26.600  0.00  0.00    +0.000 A 
ATOM      5  C   UNL     1      91.169   0.292  27.054  0.00  0.00    +0.000 A 
ATOM      6  C   UNL     1      90.942   1.233  28.063  0.00  0.00    +0.000 A 
ATOM      7  C   UNL     1      90.093  -0.422  26.519  0.00  0.00    +0.000 A 
ATOM      8  C   UNL     1      89.648   1.460  28.534  0.00  0.00    +0.000 A 
ATOM      9  C   UNL     1      88.799  -0.194  26.991  0.00  0.00    +0.000 A 
ATOM     10  C   UNL     1      88.577   0.746  27.997  0.00  0.00    +0.000 A 
ENDROOT
BRANCH   3  11
ATOM     11  C   UNL     1      94.308   2.585  28.743  0.00  0.00    +0.000 A 
ATOM     12  C   UNL     1      94.784   2.291  30.015  0.00  0.00    +0.000 A 
ATOM     13  C   UNL     1      94.858   3.624  28.000  0.00  0.00    +0.000 A 
ATOM     14  C   UNL     1      95.826   3.048  30.553  0.00  0.00    +0.000 A 
ATOM     15  C   UNL     1      95.900   4.379  28.539  0.00  0.00    +0.000 A 
ATOM     16  C   UNL     1      96.383   4.092  29.815  0.00  0.00    +0.000 A 
BRANCH  14  17
ATOM     17  O   UNL     1      96.289   2.757  31.800  0.00  0.00    +0.000 OA
ATOM     18  H   UNL     1      97.122   2.262  31.709  0.00  0.00    +0.000 HD
ENDBRANCH  14  17
BRANCH  16  19
ATOM     19  O   UNL     1      97.400   4.838  30.330  0.00  0.00    +0.000 OA
ATOM     20  H   UNL     1      97.134   5.176  31.203  0.00  0.00    +0.000 HD
ENDBRANCH  16  19
ENDBRANCH   3  11
BRANCH   7  21
ATOM     21  O   UNL     1      90.269  -1.352  25.537  0.00  0.00    +0.000 OA
ATOM     22  H   UNL     1      90.794  -0.982  24.810  0.00  0.00    +0.000 HD
ENDBRANCH   7  21
BRANCH  10  23
ATOM     23  O   UNL     1      87.314   0.966  28.456  0.00  0.00    +0.000 OA
ATOM     24  H   UNL     1      87.338   1.684  29.112  0.00  0.00    +0.000 HD
ENDBRANCH  10  23
BRANCH   2  25
ATOM     25  O   UNL     1      94.867   0.558  26.774  0.00  0.00    +0.000 OA
BRANCH  25  31
ATOM     26  O   UNL     1      94.972  -0.730  28.716  0.00  0.00    +0.000 OA
ATOM     27  C   UNL     1      97.534  -1.796  27.973  0.00  0.00    +0.000 C 
ATOM     28  C   UNL     1      96.959  -1.951  29.381  0.00  0.00    +0.000 C 
ATOM     29  C   UNL     1      96.898  -0.612  27.243  0.00  0.00    +0.000 C 
ATOM     30  C   UNL     1      95.429  -1.928  29.348  0.00  0.00    +0.000 C 
ATOM     31  C   UNL     1      95.375  -0.645  27.352  0.00  0.00    +0.000 C 
BRANCH  27  32
ATOM     32  O   UNL     1      98.942  -1.582  28.092  0.00  0.00    +0.000 OA
ATOM     33  H   UNL     1      99.380  -2.033  27.349  0.00  0.00    +0.000 HD
ENDBRANCH  27  32
BRANCH  28  34
ATOM     34  O   UNL     1      97.400  -3.187  29.938  0.00  0.00    +0.000 OA
ATOM     35  H   UNL     1      97.208  -3.888  29.295  0.00  0.00    +0.000 HD
ENDBRANCH  28  34
BRANCH  29  36
ATOM     36  O   UNL     1      97.249  -0.665  25.860  0.00  0.00    +0.000 OA
ATOM     37  H   UNL     1      96.422  -0.642  25.349  0.00  0.00    +0.000 HD
ENDBRANCH  29  36
BRANCH  30  38
ATOM     38  C   UNL     1      94.833  -1.964  30.752  0.00  0.00    +0.000 C 
BRANCH  38  39
ATOM     39  O   UNL     1      94.368  -3.276  31.011  0.00  0.00    +0.000 OA
ATOM     40  H   UNL     1      95.130  -3.806  31.306  0.00  0.00    +0.000 HD
ENDBRANCH  38  39
ENDBRANCH  30  38
ENDBRANCH  25  31
ENDBRANCH   2  25
TORSDOF 12
ENDMDL
MODEL 5
REMARK VINA RESULT:      -7.4      2.404      5.851
REMARK  Name = 441667
REMARK  12 active torsions:
REMARK  status: ('A' for Active; 'I' for Inactive)
REMARK    1  A    between atoms: O_2  and  C_16
REMARK    2  A    between atoms: O_2  and  C_18
REMARK    3  A    between atoms: O_3  and  C_12
REMARK    4  A    between atoms: O_4  and  C_13
REMARK    5  A    between atoms: O_5  and  C_14
REMARK    6  A    between atoms: O_6  and  C_17
REMARK    7  A    between atoms: O_8  and  C_24
REMARK    8  A    between atoms: O_9  and  C_29
REMARK    9  A    between atoms: O_10  and  C_30
REMARK   10  A    between atoms: O_11  and  C_32
REMARK   11  A    between atoms: C_15  and  C_17
REMARK   12  A    between atoms: C_19  and  C_23
REMARK                            x       y       z     vdW  Elec       q    Type
REMARK                         _______ _______ _______ _____ _____    ______ ____
ROOT
ATOM      1  O   UNL     1      97.135   0.805  28.793  0.00  0.00    +0.000 OA
ATOM      2  C   UNL     1      95.105   0.588  27.390  0.00  0.00    +0.000 A 
ATOM      3  C   UNL     1      96.478   0.199  27.844  0.00  0.00    +0.000 A 
ATOM      4  C   UNL     1      94.559   1.659  27.979  0.00  0.00    +0.000 A 
ATOM      5  C   UNL     1      95.280   2.386  29.018  0.00  0.00    +0.000 A 
ATOM      6  C   UNL     1      96.544   1.928  29.402  0.00  0.00    +0.000 A 
ATOM      7  C   UNL     1      94.732   3.510  29.643  0.00  0.00    +0.000 A 
ATOM      8  C   UNL     1      97.257   2.588  30.404  0.00  0.00    +0.000 A 
ATOM      9  C   UNL     1      95.447   4.170  30.644  0.00  0.00    +0.000 A 
ATOM     10  C   UNL     1      96.707   3.710  31.024  0.00  0.00    +0.000 A 
ENDROOT
BRANCH   3  11
ATOM     11  C   UNL     1      97.111  -0.968  27.186  0.00  0.00    +0.000 A 
ATOM     12  C   UNL     1      97.995  -0.768  26.132  0.00  0.00    +0.000 A 
ATOM     13  C   UNL     1      96.813  -2.252  27.630  0.00  0.00    +0.000 A 
ATOM     14  C   UNL     1      98.591  -1.869  25.514  0.00  0.00    +0.000 A 
ATOM     15  C   UNL     1      97.409  -3.351  27.011  0.00  0.00    +0.000 A 
ATOM     16  C   UNL     1      98.297  -3.159  25.953  0.00  0.00    +0.000 A 
BRANCH  14  17
ATOM     17  O   UNL     1      99.456  -1.668  24.482  0.00  0.00    +0.000 OA
ATOM     18  H   UNL     1      99.837  -2.528  24.231  0.00  0.00    +0.000 HD
ENDBRANCH  14  17
BRANCH  16  19
ATOM     19  O   UNL     1      98.872  -4.241  25.356  0.00  0.00    +0.000 OA
ATOM     20  H   UNL     1      99.117  -4.007  24.444  0.00  0.00    +0.000 HD
ENDBRANCH  16  19
ENDBRANCH   3  11
BRANCH   7  21
ATOM     21  O   UNL     1      93.502   3.989  29.303  0.00  0.00    +0.000 OA
ATOM     22  H   UNL     1      93.564   4.916  29.022  0.00  0.00    +0.000 HD
ENDBRANCH   7  21
BRANCH  10  23
ATOM     23  O   UNL     1      97.402   4.355  32.001  0.00  0.00    +0.000 OA
ATOM     24  H   UNL     1      97.121   5.286  32.025  0.00  0.00    +0.000 HD
ENDBRANCH  10  23
BRANCH   2  25
ATOM     25  O   UNL     1      94.443  -0.169  26.450  0.00  0.00    +0.000 OA
BRANCH  25  31
ATOM     26  O   UNL     1      93.471  -2.131  27.254  0.00  0.00    +0.000 OA
ATOM     27  C   UNL     1      90.863  -1.297  26.386  0.00  0.00    +0.000 C 
ATOM     28  C   UNL     1      91.163  -2.732  26.819  0.00  0.00    +0.000 C 
ATOM     29  C   UNL     1      92.139  -0.571  25.956  0.00  0.00    +0.000 C 
ATOM     30  C   UNL     1      92.322  -2.767  27.818  0.00  0.00    +0.000 C 
ATOM     31  C   UNL     1      93.253  -0.748  26.986  0.00  0.00    +0.000 C 
BRANCH  27  32
ATOM     32  O   UNL     1      89.951  -1.348  25.288  0.00  0.00    +0.000 OA
ATOM     33  H   UNL     1      89.310  -2.059  25.460  0.00  0.00    +0.000 HD
ENDBRANCH  27  32
BRANCH  28  34
ATOM     34  O   UNL     1      90.002  -3.295  27.425  0.00  0.00    +0.000 OA
ATOM     35  H   UNL     1      89.541  -2.585  27.902  0.00  0.00    +0.000 HD
ENDBRANCH  28  34
BRANCH  29  36
ATOM     36  O   UNL     1      91.868   0.825  25.826  0.00  0.00    +0.000 OA
ATOM     37  H   UNL     1      92.192   1.261  26.633  0.00  0.00    +0.000 HD
ENDBRANCH  29  36
BRANCH  30  38
ATOM     38  C   UNL     1      92.716  -4.197  28.176  0.00  0.00    +0.000 C 
BRANCH  38  39
ATOM     39  O   UNL     1      92.024  -5.084  27.316  0.00  0.00    +0.000 OA
ATOM     40  H   UNL     1      91.159  -5.273  27.721  0.00  0.00    +0.000 HD
ENDBRANCH  38  39
ENDBRANCH  30  38
ENDBRANCH  25  31
ENDBRANCH   2  25
TORSDOF 12
ENDMDL
MODEL 6
REMARK VINA RESULT:      -7.3      1.760      6.942
REMARK  Name = 441667
REMARK  12 active torsions:
REMARK  status: ('A' for Active; 'I' for Inactive)
REMARK    1  A    between atoms: O_2  and  C_16
REMARK    2  A    between atoms: O_2  and  C_18
REMARK    3  A    between atoms: O_3  and  C_12
REMARK    4  A    between atoms: O_4  and  C_13
REMARK    5  A    between atoms: O_5  and  C_14
REMARK    6  A    between atoms: O_6  and  C_17
REMARK    7  A    between atoms: O_8  and  C_24
REMARK    8  A    between atoms: O_9  and  C_29
REMARK    9  A    between atoms: O_10  and  C_30
REMARK   10  A    between atoms: O_11  and  C_32
REMARK   11  A    between atoms: C_15  and  C_17
REMARK   12  A    between atoms: C_19  and  C_23
REMARK                            x       y       z     vdW  Elec       q    Type
REMARK                         _______ _______ _______ _____ _____    ______ ____
ROOT
ATOM      1  O   UNL     1      93.129   3.418  26.864  0.00  0.00    +0.000 OA
ATOM      2  C   UNL     1      94.014   1.945  28.648  0.00  0.00    +0.000 A 
ATOM      3  C   UNL     1      93.096   2.290  27.517  0.00  0.00    +0.000 A 
ATOM      4  C   UNL     1      94.884   2.891  29.024  0.00  0.00    +0.000 A 
ATOM      5  C   UNL     1      94.924   4.180  28.343  0.00  0.00    +0.000 A 
ATOM      6  C   UNL     1      94.051   4.400  27.273  0.00  0.00    +0.000 A 
ATOM      7  C   UNL     1      95.819   5.184  28.723  0.00  0.00    +0.000 A 
ATOM      8  C   UNL     1      94.071   5.615  26.587  0.00  0.00    +0.000 A 
ATOM      9  C   UNL     1      95.837   6.400  28.036  0.00  0.00    +0.000 A 
ATOM     10  C   UNL     1      94.965   6.614  26.969  0.00  0.00    +0.000 A 
ENDROOT
BRANCH   3  11
ATOM     11  C   UNL     1      92.108   1.266  27.101  0.00  0.00    +0.000 A 
ATOM     12  C   UNL     1      90.821   1.300  27.624  0.00  0.00    +0.000 A 
ATOM     13  C   UNL     1      92.480   0.281  26.193  0.00  0.00    +0.000 A 
ATOM     14  C   UNL     1      89.892   0.336  27.232  0.00  0.00    +0.000 A 
ATOM     15  C   UNL     1      91.550  -0.682  25.801  0.00  0.00    +0.000 A 
ATOM     16  C   UNL     1      90.257  -0.655  26.321  0.00  0.00    +0.000 A 
BRANCH  14  17
ATOM     17  O   UNL     1      88.631   0.374  27.746  0.00  0.00    +0.000 OA
ATOM     18  H   UNL     1      88.635  -0.096  28.600  0.00  0.00    +0.000 HD
ENDBRANCH  14  17
BRANCH  16  19
ATOM     19  O   UNL     1      89.359  -1.602  25.931  0.00  0.00    +0.000 OA
ATOM     20  H   UNL     1      88.586  -1.164  25.536  0.00  0.00    +0.000 HD
ENDBRANCH  16  19
ENDBRANCH   3  11
BRANCH   7  21
ATOM     21  O   UNL     1      96.691   5.012  29.758  0.00  0.00    +0.000 OA
ATOM     22  H   UNL     1      96.794   4.069  29.960  0.00  0.00    +0.000 HD
ENDBRANCH   7  21
BRANCH  10  23
ATOM     23  O   UNL     1      94.986   7.800  26.301  0.00  0.00    +0.000 OA
ATOM     24  H   UNL     1      95.911   8.063  26.155  0.00  0.00    +0.000 HD
ENDBRANCH  10  23
BRANCH   2  25
ATOM     25  O   UNL     1      93.979   0.692  29.216  0.00  0.00    +0.000 OA
BRANCH  25  31
ATOM     26  O   UNL     1      95.771   0.106  27.842  0.00  0.00    +0.000 OA
ATOM     27  C   UNL     1      96.376  -2.186  29.464  0.00  0.00    +0.000 C 
ATOM     28  C   UNL     1      96.982  -1.981  28.076  0.00  0.00    +0.000 C 
ATOM     29  C   UNL     1      95.081  -1.390  29.625  0.00  0.00    +0.000 C 
ATOM     30  C   UNL     1      97.064  -0.492  27.733  0.00  0.00    +0.000 C 
ATOM     31  C   UNL     1      95.257   0.058  29.171  0.00  0.00    +0.000 C 
BRANCH  27  32
ATOM     32  O   UNL     1      96.103  -3.578  29.627  0.00  0.00    +0.000 OA
ATOM     33  H   UNL     1      96.075  -3.772  30.580  0.00  0.00    +0.000 HD
ENDBRANCH  27  32
BRANCH  28  34
ATOM     34  O   UNL     1      98.291  -2.545  28.044  0.00  0.00    +0.000 OA
ATOM     35  H   UNL     1      98.874  -1.918  27.586  0.00  0.00    +0.000 HD
ENDBRANCH  28  34
BRANCH  29  36
ATOM     36  O   UNL     1      94.697  -1.383  31.001  0.00  0.00    +0.000 OA
ATOM     37  H   UNL     1      94.218  -2.212  31.173  0.00  0.00    +0.000 HD
ENDBRANCH  29  36
BRANCH  30  38
ATOM     38  C   UNL     1      97.557  -0.267  26.307  0.00  0.00    +0.000 C 
BRANCH  38  39
ATOM     39  O   UNL     1      97.329  -1.448  25.560  0.00  0.00    +0.000 OA
ATOM     40  H   UNL     1      98.185  -1.899  25.452  0.00  0.00    +0.000 HD
ENDBRANCH  38  39
ENDBRANCH  30  38
ENDBRANCH  25  31
ENDBRANCH   2  25
TORSDOF 12
ENDMDL
MODEL 7
REMARK VINA RESULT:      -7.2      1.934      6.917
REMARK  Name = 441667
REMARK  12 active torsions:
REMARK  status: ('A' for Active; 'I' for Inactive)
REMARK    1  A    between atoms: O_2  and  C_16
REMARK    2  A    between atoms: O_2  and  C_18
REMARK    3  A    between atoms: O_3  and  C_12
REMARK    4  A    between atoms: O_4  and  C_13
REMARK    5  A    between atoms: O_5  and  C_14
REMARK    6  A    between atoms: O_6  and  C_17
REMARK    7  A    between atoms: O_8  and  C_24
REMARK    8  A    between atoms: O_9  and  C_29
REMARK    9  A    between atoms: O_10  and  C_30
REMARK   10  A    between atoms: O_11  and  C_32
REMARK   11  A    between atoms: C_15  and  C_17
REMARK   12  A    between atoms: C_19  and  C_23
REMARK                            x       y       z     vdW  Elec       q    Type
REMARK                         _______ _______ _______ _____ _____    ______ ____
ROOT
ATOM      1  O   UNL     1      92.996  -0.322  27.620  0.00  0.00    +0.000 OA
ATOM      2  C   UNL     1      93.761   1.615  28.961  0.00  0.00    +0.000 A 
ATOM      3  C   UNL     1      93.952   0.324  28.227  0.00  0.00    +0.000 A 
ATOM      4  C   UNL     1      92.510   2.090  29.024  0.00  0.00    +0.000 A 
ATOM      5  C   UNL     1      91.409   1.374  28.389  0.00  0.00    +0.000 A 
ATOM      6  C   UNL     1      91.689   0.194  27.695  0.00  0.00    +0.000 A 
ATOM      7  C   UNL     1      90.095   1.848  28.447  0.00  0.00    +0.000 A 
ATOM      8  C   UNL     1      90.663  -0.510  27.062  0.00  0.00    +0.000 A 
ATOM      9  C   UNL     1      89.070   1.142  27.814  0.00  0.00    +0.000 A 
ATOM     10  C   UNL     1      89.354  -0.035  27.122  0.00  0.00    +0.000 A 
ENDROOT
BRANCH   3  11
ATOM     11  C   UNL     1      95.325  -0.232  28.168  0.00  0.00    +0.000 A 
ATOM     12  C   UNL     1      96.111  -0.004  27.045  0.00  0.00    +0.000 A 
ATOM     13  C   UNL     1      95.811  -0.975  29.237  0.00  0.00    +0.000 A 
ATOM     14  C   UNL     1      97.404  -0.528  26.991  0.00  0.00    +0.000 A 
ATOM     15  C   UNL     1      97.103  -1.498  29.182  0.00  0.00    +0.000 A 
ATOM     16  C   UNL     1      97.899  -1.275  28.059  0.00  0.00    +0.000 A 
BRANCH  14  17
ATOM     17  O   UNL     1      98.171  -0.302  25.888  0.00  0.00    +0.000 OA
ATOM     18  H   UNL     1      97.630  -0.478  25.098  0.00  0.00    +0.000 HD
ENDBRANCH  14  17
BRANCH  16  19
ATOM     19  O   UNL     1      99.159  -1.792  28.017  0.00  0.00    +0.000 OA
ATOM     20  H   UNL     1      99.745  -1.163  27.563  0.00  0.00    +0.000 HD
ENDBRANCH  16  19
ENDBRANCH   3  11
BRANCH   7  21
ATOM     21  O   UNL     1      89.777   2.996  29.110  0.00  0.00    +0.000 OA
ATOM     22  H   UNL     1      89.748   2.839  30.067  0.00  0.00    +0.000 HD
ENDBRANCH   7  21
BRANCH  10  23
ATOM     23  O   UNL     1      88.353  -0.720  26.506  0.00  0.00    +0.000 OA
ATOM     24  H   UNL     1      88.177  -0.312  25.641  0.00  0.00    +0.000 HD
ENDBRANCH  10  23
BRANCH   2  25
ATOM     25  O   UNL     1      94.842   2.282  29.488  0.00  0.00    +0.000 OA
BRANCH  25  31
ATOM     26  O   UNL     1      95.382   3.991  27.995  0.00  0.00    +0.000 OA
ATOM     27  C   UNL     1      95.574   5.909  30.124  0.00  0.00    +0.000 C 
ATOM     28  C   UNL     1      96.092   6.195  28.715  0.00  0.00    +0.000 C 
ATOM     29  C   UNL     1      95.480   4.405  30.385  0.00  0.00    +0.000 C 
ATOM     30  C   UNL     1      95.316   5.383  27.676  0.00  0.00    +0.000 C 
ATOM     31  C   UNL     1      94.764   3.686  29.242  0.00  0.00    +0.000 C 
BRANCH  27  32
ATOM     32  O   UNL     1      96.482   6.498  31.057  0.00  0.00    +0.000 OA
ATOM     33  H   UNL     1      96.119   6.375  31.951  0.00  0.00    +0.000 HD
ENDBRANCH  27  32
BRANCH  28  34
ATOM     34  O   UNL     1      95.948   7.584  28.431  0.00  0.00    +0.000 OA
ATOM     35  H   UNL     1      95.174   7.691  27.853  0.00  0.00    +0.000 HD
ENDBRANCH  28  34
BRANCH  29  36
ATOM     36  O   UNL     1      94.744   4.178  31.587  0.00  0.00    +0.000 OA
ATOM     37  H   UNL     1      94.863   4.960  32.153  0.00  0.00    +0.000 HD
ENDBRANCH  29  36
BRANCH  30  38
ATOM     38  C   UNL     1      95.891   5.562  26.274  0.00  0.00    +0.000 C 
BRANCH  38  39
ATOM     39  O   UNL     1      95.616   6.882  25.840  0.00  0.00    +0.000 OA
ATOM     40  H   UNL     1      96.306   7.462  26.205  0.00  0.00    +0.000 HD
ENDBRANCH  38  39
ENDBRANCH  30  38
ENDBRANCH  25  31
ENDBRANCH   2  25
TORSDOF 12
ENDMDL
MODEL 8
REMARK VINA RESULT:      -7.2      1.592      5.586
REMARK  Name = 441667
REMARK  12 active torsions:
REMARK  status: ('A' for Active; 'I' for Inactive)
REMARK    1  A    between atoms: O_2  and  C_16
REMARK    2  A    between atoms: O_2  and  C_18
REMARK    3  A    between atoms: O_3  and  C_12
REMARK    4  A    between atoms: O_4  and  C_13
REMARK    5  A    between atoms: O_5  and  C_14
REMARK    6  A    between atoms: O_6  and  C_17
REMARK    7  A    between atoms: O_8  and  C_24
REMARK    8  A    between atoms: O_9  and  C_29
REMARK    9  A    between atoms: O_10  and  C_30
REMARK   10  A    between atoms: O_11  and  C_32
REMARK   11  A    between atoms: C_15  and  C_17
REMARK   12  A    between atoms: C_19  and  C_23
REMARK                            x       y       z     vdW  Elec       q    Type
REMARK                         _______ _______ _______ _____ _____    ______ ____
ROOT
ATOM      1  O   UNL     1      94.789  -1.998  27.267  0.00  0.00    +0.000 OA
ATOM      2  C   UNL     1      94.958   0.430  27.727  0.00  0.00    +0.000 A 
ATOM      3  C   UNL     1      94.229  -0.823  27.354  0.00  0.00    +0.000 A 
ATOM      4  C   UNL     1      96.277   0.319  27.933  0.00  0.00    +0.000 A 
ATOM      5  C   UNL     1      96.944  -0.972  27.808  0.00  0.00    +0.000 A 
ATOM      6  C   UNL     1      96.175  -2.095  27.490  0.00  0.00    +0.000 A 
ATOM      7  C   UNL     1      98.320  -1.111  28.013  0.00  0.00    +0.000 A 
ATOM      8  C   UNL     1      96.776  -3.350  27.376  0.00  0.00    +0.000 A 
ATOM      9  C   UNL     1      98.919  -2.366  27.898  0.00  0.00    +0.000 A 
ATOM     10  C   UNL     1      98.148  -3.484  27.581  0.00  0.00    +0.000 A 
ENDROOT
BRANCH   3  11
ATOM     11  C   UNL     1      92.774  -0.717  27.096  0.00  0.00    +0.000 A 
ATOM     12  C   UNL     1      91.984   0.073  27.923  0.00  0.00    +0.000 A 
ATOM     13  C   UNL     1      92.213  -1.409  26.028  0.00  0.00    +0.000 A 
ATOM     14  C   UNL     1      90.614   0.173  27.679  0.00  0.00    +0.000 A 
ATOM     15  C   UNL     1      90.843  -1.308  25.785  0.00  0.00    +0.000 A 
ATOM     16  C   UNL     1      90.044  -0.517  26.610  0.00  0.00    +0.000 A 
BRANCH  14  17
ATOM     17  O   UNL     1      89.845   0.949  28.492  0.00  0.00    +0.000 OA
ATOM     18  H   UNL     1      88.910   0.786  28.275  0.00  0.00    +0.000 HD
ENDBRANCH  14  17
BRANCH  16  19
ATOM     19  O   UNL     1      88.707  -0.429  26.362  0.00  0.00    +0.000 OA
ATOM     20  H   UNL     1      88.232  -1.017  26.973  0.00  0.00    +0.000 HD
ENDBRANCH  16  19
ENDBRANCH   3  11
BRANCH   7  21
ATOM     21  O   UNL     1      99.107  -0.043  28.328  0.00  0.00    +0.000 OA
ATOM     22  H   UNL     1      99.963  -0.343  28.673  0.00  0.00    +0.000 HD
ENDBRANCH   7  21
BRANCH  10  23
ATOM     23  O   UNL     1      98.736  -4.707  27.471  0.00  0.00    +0.000 OA
ATOM     24  H   UNL     1      98.096  -5.331  27.088  0.00  0.00    +0.000 HD
ENDBRANCH  10  23
BRANCH   2  25
ATOM     25  O   UNL     1      94.271   1.611  27.893  0.00  0.00    +0.000 OA
BRANCH  25  31
ATOM     26  O   UNL     1      94.923   3.833  28.180  0.00  0.00    +0.000 OA
ATOM     27  C   UNL     1      94.870   4.304  25.347  0.00  0.00    +0.000 C 
ATOM     28  C   UNL     1      94.956   5.441  26.365  0.00  0.00    +0.000 C 
ATOM     29  C   UNL     1      94.282   3.040  25.976  0.00  0.00    +0.000 C 
ATOM     30  C   UNL     1      95.624   4.963  27.657  0.00  0.00    +0.000 C 
ATOM     31  C   UNL     1      94.965   2.710  27.302  0.00  0.00    +0.000 C 
BRANCH  27  32
ATOM     32  O   UNL     1      94.032   4.735  24.273  0.00  0.00    +0.000 OA
ATOM     33  H   UNL     1      94.066   4.060  23.573  0.00  0.00    +0.000 HD
ENDBRANCH  27  32
BRANCH  28  34
ATOM     34  O   UNL     1      95.713   6.514  25.812  0.00  0.00    +0.000 OA
ATOM     35  H   UNL     1      95.771   7.214  26.483  0.00  0.00    +0.000 HD
ENDBRANCH  28  34
BRANCH  29  36
ATOM     36  O   UNL     1      94.471   1.938  25.089  0.00  0.00    +0.000 OA
ATOM     37  H   UNL     1      93.748   1.307  25.250  0.00  0.00    +0.000 HD
ENDBRANCH  29  36
BRANCH  30  38
ATOM     38  C   UNL     1      95.616   6.047  28.731  0.00  0.00    +0.000 C 
BRANCH  38  39
ATOM     39  O   UNL     1      96.713   6.913  28.505  0.00  0.00    +0.000 OA
ATOM     40  H   UNL     1      97.493   6.520  28.935  0.00  0.00    +0.000 HD
ENDBRANCH  38  39
ENDBRANCH  30  38
ENDBRANCH  25  31
ENDBRANCH   2  25
TORSDOF 12
ENDMDL
MODEL 9
REMARK VINA RESULT:      -7.2      1.878      6.567
REMARK  Name = 441667
REMARK  12 active torsions:
REMARK  status: ('A' for Active; 'I' for Inactive)
REMARK    1  A    between atoms: O_2  and  C_16
REMARK    2  A    between atoms: O_2  and  C_18
REMARK    3  A    between atoms: O_3  and  C_12
REMARK    4  A    between atoms: O_4  and  C_13
REMARK    5  A    between atoms: O_5  and  C_14
REMARK    6  A    between atoms: O_6  and  C_17
REMARK    7  A    between atoms: O_8  and  C_24
REMARK    8  A    between atoms: O_9  and  C_29
REMARK    9  A    between atoms: O_10  and  C_30
REMARK   10  A    between atoms: O_11  and  C_32
REMARK   11  A    between atoms: C_15  and  C_17
REMARK   12  A    between atoms: C_19  and  C_23
REMARK                            x       y       z     vdW  Elec       q    Type
REMARK                         _______ _______ _______ _____ _____    ______ ____
ROOT
ATOM      1  O   UNL     1      93.809  -2.767  27.302  0.00  0.00    +0.000 OA
ATOM      2  C   UNL     1      94.273  -0.382  26.823  0.00  0.00    +0.000 A 
ATOM      3  C   UNL     1      94.655  -1.782  27.188  0.00  0.00    +0.000 A 
ATOM      4  C   UNL     1      92.966  -0.141  26.653  0.00  0.00    +0.000 A 
ATOM      5  C   UNL     1      91.986  -1.211  26.809  0.00  0.00    +0.000 A 
ATOM      6  C   UNL     1      92.441  -2.496  27.118  0.00  0.00    +0.000 A 
ATOM      7  C   UNL     1      90.617  -0.982  26.643  0.00  0.00    +0.000 A 
ATOM      8  C   UNL     1      91.534  -3.548  27.260  0.00  0.00    +0.000 A 
ATOM      9  C   UNL     1      89.711  -2.035  26.787  0.00  0.00    +0.000 A 
ATOM     10  C   UNL     1      90.169  -3.316  27.094  0.00  0.00    +0.000 A 
ENDROOT
BRANCH   3  11
ATOM     11  C   UNL     1      96.095  -2.062  27.405  0.00  0.00    +0.000 A 
ATOM     12  C   UNL     1      96.928  -2.267  26.312  0.00  0.00    +0.000 A 
ATOM     13  C   UNL     1      96.596  -2.116  28.701  0.00  0.00    +0.000 A 
ATOM     14  C   UNL     1      98.283  -2.531  26.518  0.00  0.00    +0.000 A 
ATOM     15  C   UNL     1      97.951  -2.380  28.906  0.00  0.00    +0.000 A 
ATOM     16  C   UNL     1      98.794  -2.587  27.815  0.00  0.00    +0.000 A 
BRANCH  14  17
ATOM     17  O   UNL     1      99.096  -2.731  25.444  0.00  0.00    +0.000 OA
ATOM     18  H   UNL     1      99.044  -1.946  24.871  0.00  0.00    +0.000 HD
ENDBRANCH  14  17
BRANCH  16  19
ATOM     19  O   UNL     1     100.114  -2.845  28.028  0.00  0.00    +0.000 OA
ATOM     20  H   UNL     1     100.561  -2.020  28.286  0.00  0.00    +0.000 HD
ENDBRANCH  16  19
ENDBRANCH   3  11
BRANCH   7  21
ATOM     21  O   UNL     1      90.130   0.254  26.339  0.00  0.00    +0.000 OA
ATOM     22  H   UNL     1      90.701   0.945  26.710  0.00  0.00    +0.000 HD
ENDBRANCH   7  21
BRANCH  10  23
ATOM     23  O   UNL     1      89.284  -4.340  27.233  0.00  0.00    +0.000 OA
ATOM     24  H   UNL     1      88.566  -4.058  27.826  0.00  0.00    +0.000 HD
ENDBRANCH  10  23
BRANCH   2  25
ATOM     25  O   UNL     1      95.241   0.576  26.626  0.00  0.00    +0.000 OA
BRANCH  25  31
ATOM     26  O   UNL     1      94.946   2.847  26.177  0.00  0.00    +0.000 OA
ATOM     27  C   UNL     1      95.546   3.549  28.897  0.00  0.00    +0.000 C 
ATOM     28  C   UNL     1      95.492   4.586  27.775  0.00  0.00    +0.000 C 
ATOM     29  C   UNL     1      95.794   2.146  28.342  0.00  0.00    +0.000 C 
ATOM     30  C   UNL     1      94.548   4.131  26.660  0.00  0.00    +0.000 C 
ATOM     31  C   UNL     1      94.855   1.835  27.177  0.00  0.00    +0.000 C 
BRANCH  27  32
ATOM     32  O   UNL     1      96.611   3.907  29.779  0.00  0.00    +0.000 OA
ATOM     33  H   UNL     1      96.242   4.457  30.492  0.00  0.00    +0.000 HD
ENDBRANCH  27  32
BRANCH  28  34
ATOM     34  O   UNL     1      95.034   5.829  28.302  0.00  0.00    +0.000 OA
ATOM     35  H   UNL     1      95.136   5.798  29.268  0.00  0.00    +0.000 HD
ENDBRANCH  28  34
BRANCH  29  36
ATOM     36  O   UNL     1      95.565   1.183  29.371  0.00  0.00    +0.000 OA
ATOM     37  H   UNL     1      94.662   0.840  29.253  0.00  0.00    +0.000 HD
ENDBRANCH  29  36
BRANCH  30  38
ATOM     38  C   UNL     1      94.566   5.094  25.476  0.00  0.00    +0.000 C 
BRANCH  38  39
ATOM     39  O   UNL     1      95.769   5.840  25.521  0.00  0.00    +0.000 OA
ATOM     40  H   UNL     1      95.557   6.723  25.870  0.00  0.00    +0.000 HD
ENDBRANCH  38  39
ENDBRANCH  30  38
ENDBRANCH  25  31
ENDBRANCH   2  25
TORSDOF 12
ENDMDL
