REMARK VINA RESULT:      -5.5      2.339      7.062
REMARK  Name = 5280443
REMARK  4 active torsions:
REMARK  status: ('A' for Active; 'I' for Inactive)
REMARK    1  A    between atoms: O_2  and  C_12
REMARK    2  A    between atoms: O_4  and  C_14
REMARK    3  A    between atoms: O_5  and  C_20
REMARK    4  A    between atoms: C_8  and  C_9
REMARK                            x       y       z     vdW  Elec       q    Type
REMARK                         _______ _______ _______ _____ _____    ______ ____
ROOT
ATOM      1  O   UNL     1      89.874  -2.573  20.392  0.00  0.00    +0.000 OA
ATOM      2  O   UNL     1      88.996   1.386  20.782  0.00  0.00    +0.000 OA
ATOM      3  C   UNL     1      89.013  -0.530  19.399  0.00  0.00    +0.000 A 
ATOM      4  C   UNL     1      89.335  -1.884  19.334  0.00  0.00    +0.000 A 
ATOM      5  C   UNL     1      90.115  -1.887  21.573  0.00  0.00    +0.000 A 
ATOM      6  C   UNL     1      89.257   0.199  20.654  0.00  0.00    +0.000 A 
ATOM      7  C   UNL     1      89.841  -0.586  21.761  0.00  0.00    +0.000 A 
ATOM      8  C   UNL     1      88.466   0.119  18.291  0.00  0.00    +0.000 A 
ATOM      9  C   UNL     1      89.112  -2.599  18.158  0.00  0.00    +0.000 A 
ATOM     10  C   UNL     1      88.565  -1.954  17.048  0.00  0.00    +0.000 A 
ATOM     11  C   UNL     1      88.243  -0.597  17.114  0.00  0.00    +0.000 A 
ENDROOT
BRANCH   5  12
ATOM     12  C   UNL     1      90.689  -2.723  22.645  0.00  0.00    +0.000 A 
ATOM     13  C   UNL     1      90.483  -4.105  22.644  0.00  0.00    +0.000 A 
ATOM     14  C   UNL     1      91.442  -2.137  23.665  0.00  0.00    +0.000 A 
ATOM     15  C   UNL     1      91.027  -4.896  23.657  0.00  0.00    +0.000 A 
ATOM     16  C   UNL     1      91.985  -2.928  24.678  0.00  0.00    +0.000 A 
ATOM     17  C   UNL     1      91.777  -4.307  24.674  0.00  0.00    +0.000 A 
BRANCH  17  18
ATOM     18  O   UNL     1      92.308  -5.078  25.662  0.00  0.00    +0.000 OA
ATOM     19  H   UNL     1      91.850  -4.879  26.497  0.00  0.00    +0.000 HD
ENDBRANCH  17  18
ENDBRANCH   5  12
BRANCH   8  20
ATOM     20  O   UNL     1      88.133   1.441  18.304  0.00  0.00    +0.000 OA
ATOM     21  H   UNL     1      87.351   1.589  18.858  0.00  0.00    +0.000 HD
ENDBRANCH   8  20
BRANCH  10  22
ATOM     22  O   UNL     1      88.345  -2.649  15.898  0.00  0.00    +0.000 OA
ATOM     23  H   UNL     1      88.933  -2.304  15.203  0.00  0.00    +0.000 HD
ENDBRANCH  10  22
TORSDOF 4
