REMARK VINA RESULT:      -5.7      1.756      3.537
REMARK  Name = 5280443
REMARK  4 active torsions:
REMARK  status: ('A' for Active; 'I' for Inactive)
REMARK    1  A    between atoms: O_2  and  C_12
REMARK    2  A    between atoms: O_4  and  C_14
REMARK    3  A    between atoms: O_5  and  C_20
REMARK    4  A    between atoms: C_8  and  C_9
REMARK                            x       y       z     vdW  Elec       q    Type
REMARK                         _______ _______ _______ _____ _____    ______ ____
ROOT
ATOM      1  O   UNL     1      88.849  -0.275  21.633  0.00  0.00    +0.000 OA
ATOM      2  O   UNL     1      92.119  -2.623  22.253  0.00  0.00    +0.000 OA
ATOM      3  C   UNL     1      90.388  -1.319  23.195  0.00  0.00    +0.000 A 
ATOM      4  C   UNL     1      89.278  -0.526  22.912  0.00  0.00    +0.000 A 
ATOM      5  C   UNL     1      89.558  -0.828  20.578  0.00  0.00    +0.000 A 
ATOM      6  C   UNL     1      91.138  -1.916  22.079  0.00  0.00    +0.000 A 
ATOM      7  C   UNL     1      90.638  -1.613  20.722  0.00  0.00    +0.000 A 
ATOM      8  C   UNL     1      90.779  -1.542  24.517  0.00  0.00    +0.000 A 
ATOM      9  C   UNL     1      88.549   0.050  23.953  0.00  0.00    +0.000 A 
ATOM     10  C   UNL     1      88.935  -0.170  25.275  0.00  0.00    +0.000 A 
ATOM     11  C   UNL     1      90.049  -0.964  25.557  0.00  0.00    +0.000 A 
ENDROOT
BRANCH   5  12
ATOM     12  C   UNL     1      89.008  -0.499  19.248  0.00  0.00    +0.000 A 
ATOM     13  C   UNL     1      88.398   0.739  19.028  0.00  0.00    +0.000 A 
ATOM     14  C   UNL     1      89.097  -1.422  18.204  0.00  0.00    +0.000 A 
ATOM     15  C   UNL     1      87.879   1.051  17.772  0.00  0.00    +0.000 A 
ATOM     16  C   UNL     1      88.577  -1.110  16.948  0.00  0.00    +0.000 A 
ATOM     17  C   UNL     1      87.968   0.126  16.731  0.00  0.00    +0.000 A 
BRANCH  17  18
ATOM     18  O   UNL     1      87.463   0.430  15.505  0.00  0.00    +0.000 OA
ATOM     19  H   UNL     1      87.919  -0.108  14.834  0.00  0.00    +0.000 HD
ENDBRANCH  17  18
ENDBRANCH   5  12
BRANCH   8  20
ATOM     20  O   UNL     1      91.856  -2.309  24.846  0.00  0.00    +0.000 OA
ATOM     21  H   UNL     1      91.914  -2.419  25.807  0.00  0.00    +0.000 HD
ENDBRANCH   8  20
BRANCH  10  22
ATOM     22  O   UNL     1      88.226   0.391  26.293  0.00  0.00    +0.000 OA
ATOM     23  H   UNL     1      87.331   0.603  25.975  0.00  0.00    +0.000 HD
ENDBRANCH  10  22
TORSDOF 4
