REMARK VINA RESULT:      -5.7      2.848      4.438
REMARK  Name = 5280443
REMARK  4 active torsions:
REMARK  status: ('A' for Active; 'I' for Inactive)
REMARK    1  A    between atoms: O_2  and  C_12
REMARK    2  A    between atoms: O_4  and  C_14
REMARK    3  A    between atoms: O_5  and  C_20
REMARK    4  A    between atoms: C_8  and  C_9
REMARK                            x       y       z     vdW  Elec       q    Type
REMARK                         _______ _______ _______ _____ _____    ______ ____
ROOT
ATOM      1  O   UNL     1      87.702  -0.711  25.261  0.00  0.00    +0.000 OA
ATOM      2  O   UNL     1      90.036  -0.153  28.553  0.00  0.00    +0.000 OA
ATOM      3  C   UNL     1      87.888  -0.610  27.681  0.00  0.00    +0.000 A 
ATOM      4  C   UNL     1      87.148  -0.791  26.514  0.00  0.00    +0.000 A 
ATOM      5  C   UNL     1      89.055  -0.428  25.154  0.00  0.00    +0.000 A 
ATOM      6  C   UNL     1      89.326  -0.320  27.572  0.00  0.00    +0.000 A 
ATOM      7  C   UNL     1      89.874  -0.242  26.202  0.00  0.00    +0.000 A 
ATOM      8  C   UNL     1      87.271  -0.704  28.930  0.00  0.00    +0.000 A 
ATOM      9  C   UNL     1      85.783  -1.068  26.590  0.00  0.00    +0.000 A 
ATOM     10  C   UNL     1      85.162  -1.163  27.835  0.00  0.00    +0.000 A 
ATOM     11  C   UNL     1      85.905  -0.981  29.004  0.00  0.00    +0.000 A 
ENDROOT
BRANCH   5  12
ATOM     12  C   UNL     1      89.548  -0.371  23.764  0.00  0.00    +0.000 A 
ATOM     13  C   UNL     1      90.871  -0.716  23.473  0.00  0.00    +0.000 A 
ATOM     14  C   UNL     1      88.694   0.028  22.733  0.00  0.00    +0.000 A 
ATOM     15  C   UNL     1      91.335  -0.663  22.159  0.00  0.00    +0.000 A 
ATOM     16  C   UNL     1      89.160   0.081  21.419  0.00  0.00    +0.000 A 
ATOM     17  C   UNL     1      90.481  -0.264  21.132  0.00  0.00    +0.000 A 
BRANCH  17  18
ATOM     18  O   UNL     1      90.934  -0.212  19.850  0.00  0.00    +0.000 OA
ATOM     19  H   UNL     1      91.641   0.454  19.793  0.00  0.00    +0.000 HD
ENDBRANCH  17  18
ENDBRANCH   5  12
BRANCH   8  20
ATOM     20  O   UNL     1      87.950  -0.536  30.099  0.00  0.00    +0.000 OA
ATOM     21  H   UNL     1      87.889   0.385  30.398  0.00  0.00    +0.000 HD
ENDBRANCH   8  20
BRANCH  10  22
ATOM     22  O   UNL     1      83.830  -1.434  27.913  0.00  0.00    +0.000 OA
ATOM     23  H   UNL     1      83.439  -0.896  28.623  0.00  0.00    +0.000 HD
ENDBRANCH  10  22
TORSDOF 4
