REMARK VINA RESULT:      -4.8      4.195      7.072
REMARK  Name = 155598690
REMARK  7 active torsions:
REMARK  status: ('A' for Active; 'I' for Inactive)
REMARK    1  A    between atoms: O_1  and  C_11
REMARK    2  A    between atoms: O_1  and  C_16
REMARK    3  A    between atoms: O_3  and  C_19
REMARK    4  A    between atoms: O_3  and  C_25
REMARK    5  A    between atoms: N_4  and  C_10
REMARK    6  A    between atoms: C_16  and  C_19
REMARK    7  A    between atoms: C_17  and  C_18
REMARK                            x       y       z     vdW  Elec       q    Type
REMARK                         _______ _______ _______ _____ _____    ______ ____
ROOT
ATOM      1  O   UNL     1      91.345  -2.374  22.502  0.00  0.00    +0.000 OA
ATOM      2  N   UNL     1      89.171  -1.604  22.261  0.00  0.00    +0.000 N 
ATOM      3  C   UNL     1      90.227  -2.164  22.963  0.00  0.00    +0.000 C 
ATOM      4  H   UNL     1      88.266  -1.519  22.715  0.00  0.00    +0.000 HD
ENDROOT
BRANCH   3  10
ATOM      5  N   UNL     1      88.790  -2.100  24.923  0.00  0.00    +0.000 NA
ATOM      6  N   UNL     1      91.989  -3.919  24.887  0.00  0.00    +0.000 N 
ATOM      7  N   UNL     1      89.289  -3.207  27.032  0.00  0.00    +0.000 NA
ATOM      8  N   UNL     1      87.346  -1.976  26.736  0.00  0.00    +0.000 N 
ATOM      9  N   UNL     1      85.721  -1.613  28.205  0.00  0.00    +0.000 NA
ATOM     10  C   UNL     1      89.940  -2.545  24.370  0.00  0.00    +0.000 A 
ATOM     11  C   UNL     1      90.780  -3.326  25.143  0.00  0.00    +0.000 A 
ATOM     12  C   UNL     1      90.437  -3.639  26.455  0.00  0.00    +0.000 A 
ATOM     13  C   UNL     1      88.539  -2.454  26.203  0.00  0.00    +0.000 A 
ATOM     14  C   UNL     1      91.475  -4.441  26.989  0.00  0.00    +0.000 A 
ATOM     15  C   UNL     1      92.420  -4.598  25.999  0.00  0.00    +0.000 A 
ATOM     16  C   UNL     1      86.426  -1.199  26.092  0.00  0.00    +0.000 A 
ATOM     17  C   UNL     1      86.880  -2.199  28.001  0.00  0.00    +0.000 A 
ATOM     18  C   UNL     1      85.433  -0.988  27.018  0.00  0.00    +0.000 A 
ATOM     19  H   UNL     1      92.492  -3.866  24.010  0.00  0.00    +0.000 HD
ENDBRANCH   3  10
BRANCH   2  20
ATOM     20  C   UNL     1      89.285  -1.206  20.879  0.00  0.00    +0.000 C 
ATOM     21  C   UNL     1      88.101  -0.506  18.265  0.00  0.00    +0.000 C 
ATOM     22  C   UNL     1      88.702  -2.282  19.960  0.00  0.00    +0.000 C 
ATOM     23  C   UNL     1      88.614   0.152  20.650  0.00  0.00    +0.000 C 
ATOM     24  C   UNL     1      88.770  -1.861  18.495  0.00  0.00    +0.000 C 
ATOM     25  C   UNL     1      88.684   0.566  19.183  0.00  0.00    +0.000 C 
BRANCH  21  26
ATOM     26  O   UNL     1      88.291  -0.102  16.914  0.00  0.00    +0.000 OA
BRANCH  26  27
ATOM     27  C   UNL     1      88.218   1.309  16.777  0.00  0.00    +0.000 C 
BRANCH  27  28
ATOM     28  C   UNL     1      86.993   1.665  15.956  0.00  0.00    +0.000 C 
BRANCH  28  29
ATOM     29  O   UNL     1      85.885   1.841  16.830  0.00  0.00    +0.000 OA
ATOM     30  C   UNL     1      84.818   0.962  16.500  0.00  0.00    +0.000 C 
ENDBRANCH  28  29
ENDBRANCH  27  28
ENDBRANCH  26  27
ENDBRANCH  21  26
ENDBRANCH   2  20
TORSDOF 6
