REMARK VINA RESULT:      -5.1      5.602     11.341
REMARK  Name = 168679856
REMARK  8 active torsions:
REMARK  status: ('A' for Active; 'I' for Inactive)
REMARK    1  A    between atoms: O_4  and  C_23
REMARK    2  A    between atoms: O_4  and  C_28
REMARK    3  A    between atoms: O_5  and  C_24
REMARK    4  A    between atoms: O_5  and  C_29
REMARK    5  A    between atoms: N_10  and  C_19
REMARK    6  A    between atoms: C_14  and  C_18
REMARK    7  A    between atoms: C_16  and  C_20
REMARK    8  A    between atoms: C_23  and  C_24
REMARK                            x       y       z     vdW  Elec       q    Type
REMARK                         _______ _______ _______ _____ _____    ______ ____
ROOT
ATOM      1  N   UNL     1      83.703   1.740  33.510  0.00  0.00    +0.000 N 
ATOM      2  N   UNL     1      85.373   1.074  32.031  0.00  0.00    +0.000 NA
ATOM      3  N   UNL     1      85.290   3.324  32.891  0.00  0.00    +0.000 NA
ATOM      4  N   UNL     1      81.974   1.984  34.882  0.00  0.00    +0.000 NA
ATOM      5  C   UNL     1      86.473   1.420  31.333  0.00  0.00    +0.000 A 
ATOM      6  C   UNL     1      84.840   2.060  32.778  0.00  0.00    +0.000 A 
ATOM      7  C   UNL     1      86.395   3.601  32.165  0.00  0.00    +0.000 A 
ATOM      8  C   UNL     1      87.035   2.679  31.362  0.00  0.00    +0.000 A 
ATOM      9  C   UNL     1      83.078   0.525  33.543  0.00  0.00    +0.000 A 
ATOM     10  C   UNL     1      83.005   2.583  34.328  0.00  0.00    +0.000 A 
ATOM     11  C   UNL     1      82.015   0.700  34.397  0.00  0.00    +0.000 A 
ENDROOT
BRANCH   7  15
ATOM     12  F   UNL     1      87.949   5.121  33.160  0.00  0.00    +0.000 F 
ATOM     13  F   UNL     1      87.425   5.445  31.074  0.00  0.00    +0.000 F 
ATOM     14  F   UNL     1      85.995   5.912  32.644  0.00  0.00    +0.000 F 
ATOM     15  C   UNL     1      86.928   4.991  32.261  0.00  0.00    +0.000 C 
ENDBRANCH   7  15
BRANCH   5  18
ATOM     16  O   UNL     1      87.043  -0.801  30.937  0.00  0.00    +0.000 OA
ATOM     17  N   UNL     1      87.613   0.760  29.271  0.00  0.00    +0.000 N 
ATOM     18  C   UNL     1      87.077   0.345  30.502  0.00  0.00    +0.000 C 
ATOM     19  H   UNL     1      87.556   1.755  29.063  0.00  0.00    +0.000 HD
BRANCH  17  22
ATOM     20  N   UNL     1      90.196  -0.906  27.256  0.00  0.00    +0.000 NA
ATOM     21  N   UNL     1      88.024  -1.471  26.379  0.00  0.00    +0.000 NA
ATOM     22  C   UNL     1      88.212  -0.020  28.289  0.00  0.00    +0.000 A 
ATOM     23  C   UNL     1      89.582  -0.158  28.195  0.00  0.00    +0.000 A 
ATOM     24  C   UNL     1      87.476  -0.706  27.345  0.00  0.00    +0.000 A 
ATOM     25  C   UNL     1      89.370  -1.527  26.392  0.00  0.00    +0.000 A 
BRANCH  25  26
ATOM     26  O   UNL     1      89.963  -2.299  25.421  0.00  0.00    +0.000 OA
BRANCH  26  27
ATOM     27  C   UNL     1      91.086  -1.735  24.758  0.00  0.00    +0.000 C 
BRANCH  27  28
ATOM     28  C   UNL     1      90.598  -0.807  23.662  0.00  0.00    +0.000 C 
BRANCH  28  29
ATOM     29  O   UNL     1      91.690  -0.475  22.814  0.00  0.00    +0.000 OA
ATOM     30  C   UNL     1      91.897  -1.469  21.821  0.00  0.00    +0.000 C 
ENDBRANCH  28  29
ENDBRANCH  27  28
ENDBRANCH  26  27
ENDBRANCH  25  26
ENDBRANCH  17  22
ENDBRANCH   5  18
TORSDOF 7
