REMARK VINA RESULT:      -5.1      4.710     10.130
REMARK  Name = 168679856
REMARK  8 active torsions:
REMARK  status: ('A' for Active; 'I' for Inactive)
REMARK    1  A    between atoms: O_4  and  C_23
REMARK    2  A    between atoms: O_4  and  C_28
REMARK    3  A    between atoms: O_5  and  C_24
REMARK    4  A    between atoms: O_5  and  C_29
REMARK    5  A    between atoms: N_10  and  C_19
REMARK    6  A    between atoms: C_14  and  C_18
REMARK    7  A    between atoms: C_16  and  C_20
REMARK    8  A    between atoms: C_23  and  C_24
REMARK                            x       y       z     vdW  Elec       q    Type
REMARK                         _______ _______ _______ _____ _____    ______ ____
ROOT
ATOM      1  N   UNL     1      85.882   2.944  31.011  0.00  0.00    +0.000 N 
ATOM      2  N   UNL     1      86.574   1.290  29.527  0.00  0.00    +0.000 NA
ATOM      3  N   UNL     1      86.481   0.880  31.901  0.00  0.00    +0.000 NA
ATOM      4  N   UNL     1      85.178   4.756  32.085  0.00  0.00    +0.000 NA
ATOM      5  C   UNL     1      87.011   0.025  29.364  0.00  0.00    +0.000 A 
ATOM      6  C   UNL     1      86.332   1.646  30.804  0.00  0.00    +0.000 A 
ATOM      7  C   UNL     1      86.921  -0.374  31.663  0.00  0.00    +0.000 A 
ATOM      8  C   UNL     1      87.204  -0.861  30.403  0.00  0.00    +0.000 A 
ATOM      9  C   UNL     1      85.663   3.888  30.048  0.00  0.00    +0.000 A 
ATOM     10  C   UNL     1      85.578   3.511  32.217  0.00  0.00    +0.000 A 
ATOM     11  C   UNL     1      85.228   4.997  30.734  0.00  0.00    +0.000 A 
ENDROOT
BRANCH   7  15
ATOM     12  F   UNL     1      88.336  -1.159  33.423  0.00  0.00    +0.000 F 
ATOM     13  F   UNL     1      86.211  -0.982  33.849  0.00  0.00    +0.000 F 
ATOM     14  F   UNL     1      86.939  -2.586  32.576  0.00  0.00    +0.000 F 
ATOM     15  C   UNL     1      87.100  -1.258  32.852  0.00  0.00    +0.000 C 
ENDBRANCH   7  15
BRANCH   5  18
ATOM     16  O   UNL     1      86.383  -0.945  27.344  0.00  0.00    +0.000 OA
ATOM     17  N   UNL     1      88.564  -0.072  27.475  0.00  0.00    +0.000 N 
ATOM     18  C   UNL     1      87.285  -0.389  27.962  0.00  0.00    +0.000 C 
ATOM     19  H   UNL     1      89.194   0.396  28.123  0.00  0.00    +0.000 HD
BRANCH  17  22
ATOM     20  N   UNL     1      90.729  -1.358  24.797  0.00  0.00    +0.000 NA
ATOM     21  N   UNL     1      89.002   0.012  23.826  0.00  0.00    +0.000 NA
ATOM     22  C   UNL     1      89.085  -0.313  26.209  0.00  0.00    +0.000 A 
ATOM     23  C   UNL     1      90.198  -1.104  26.011  0.00  0.00    +0.000 A 
ATOM     24  C   UNL     1      88.523   0.224  25.069  0.00  0.00    +0.000 A 
ATOM     25  C   UNL     1      90.091  -0.777  23.763  0.00  0.00    +0.000 A 
BRANCH  25  26
ATOM     26  O   UNL     1      90.605  -1.016  22.510  0.00  0.00    +0.000 OA
BRANCH  26  27
ATOM     27  C   UNL     1      89.752  -0.732  21.410  0.00  0.00    +0.000 C 
BRANCH  27  28
ATOM     28  C   UNL     1      90.538   0.028  20.358  0.00  0.00    +0.000 C 
BRANCH  28  29
ATOM     29  O   UNL     1      89.798   0.040  19.144  0.00  0.00    +0.000 OA
ATOM     30  C   UNL     1      88.459   0.467  19.355  0.00  0.00    +0.000 C 
ENDBRANCH  28  29
ENDBRANCH  27  28
ENDBRANCH  26  27
ENDBRANCH  25  26
ENDBRANCH  17  22
ENDBRANCH   5  18
TORSDOF 7
