REMARK VINA RESULT:      -5.4      2.071      2.953
REMARK  Name = 118736856
REMARK  9 active torsions:
REMARK  status: ('A' for Active; 'I' for Inactive)
REMARK    1  A    between atoms: O_2  and  C_11
REMARK    2  A    between atoms: O_2  and  C_15
REMARK    3  A    between atoms: O_3  and  C_19
REMARK    4  A    between atoms: O_3  and  C_27
REMARK    5  A    between atoms: N_5  and  C_8
REMARK    6  A    between atoms: N_5  and  C_14
REMARK    7  A    between atoms: N_6  and  C_25
REMARK    8  A    between atoms: C_15  and  C_19
REMARK    9  A    between atoms: C_23  and  C_26
REMARK                            x       y       z     vdW  Elec       q    Type
REMARK                         _______ _______ _______ _____ _____    ______ ____
ROOT
ATOM      1  O   UNL     1      86.480  -1.838  32.843  0.00  0.00    +0.000 OA
ATOM      2  N   UNL     1      85.582   0.312  32.833  0.00  0.00    +0.000 N 
ATOM      3  C   UNL     1      86.680   0.557  30.212  0.00  0.00    +0.000 A 
ATOM      4  C   UNL     1      85.929   1.681  30.819  0.00  0.00    +0.000 A 
ATOM      5  C   UNL     1      86.828  -0.570  30.922  0.00  0.00    +0.000 A 
ATOM      6  C   UNL     1      85.394   1.539  32.118  0.00  0.00    +0.000 A 
ATOM      7  C   UNL     1      85.730   2.900  30.141  0.00  0.00    +0.000 A 
ATOM      8  C   UNL     1      86.282  -0.759  32.286  0.00  0.00    +0.000 A 
ATOM      9  C   UNL     1      84.680   2.612  32.691  0.00  0.00    +0.000 A 
ATOM     10  C   UNL     1      85.021   3.952  30.724  0.00  0.00    +0.000 A 
ATOM     11  C   UNL     1      84.496   3.807  31.999  0.00  0.00    +0.000 A 
ATOM     12  C   UNL     1      85.021   0.180  34.176  0.00  0.00    +0.000 C 
ENDROOT
BRANCH  10  15
ATOM     13  S   UNL     1      83.736   5.250  28.684  0.00  0.00    +0.000 S 
ATOM     14  N   UNL     1      85.007   7.413  29.306  0.00  0.00    +0.000 NA
ATOM     15  C   UNL     1      84.832   5.186  30.002  0.00  0.00    +0.000 A 
ATOM     16  C   UNL     1      85.410   6.425  30.184  0.00  0.00    +0.000 A 
ATOM     17  C   UNL     1      84.127   6.908  28.471  0.00  0.00    +0.000 A 
ENDBRANCH  10  15
BRANCH   3  18
ATOM     18  N   UNL     1      87.205   0.680  28.953  0.00  0.00    +0.000 N 
ATOM     19  H   UNL     1      87.167   1.580  28.492  0.00  0.00    +0.000 HD
BRANCH  18  20
ATOM     20  C   UNL     1      87.974  -0.363  28.310  0.00  0.00    +0.000 C 
ATOM     21  C   UNL     1      87.368  -0.672  26.938  0.00  0.00    +0.000 C 
ATOM     22  C   UNL     1      89.434   0.080  28.192  0.00  0.00    +0.000 C 
ATOM     23  C   UNL     1      89.663  -1.255  26.058  0.00  0.00    +0.000 C 
ATOM     24  C   UNL     1      88.206  -1.696  26.178  0.00  0.00    +0.000 C 
ATOM     25  C   UNL     1      90.268  -0.945  27.427  0.00  0.00    +0.000 C 
BRANCH  23  26
ATOM     26  O   UNL     1      90.404  -2.298  25.433  0.00  0.00    +0.000 OA
BRANCH  26  27
ATOM     27  C   UNL     1      91.418  -1.779  24.585  0.00  0.00    +0.000 C 
BRANCH  27  28
ATOM     28  C   UNL     1      90.808  -0.736  23.668  0.00  0.00    +0.000 C 
BRANCH  28  29
ATOM     29  O   UNL     1      91.757  -0.384  22.668  0.00  0.00    +0.000 OA
ATOM     30  C   UNL     1      91.482  -1.036  21.437  0.00  0.00    +0.000 C 
ENDBRANCH  28  29
ENDBRANCH  27  28
ENDBRANCH  26  27
ENDBRANCH  23  26
ENDBRANCH  18  20
ENDBRANCH   3  18
TORSDOF 7
