REMARK VINA RESULT:      -5.7      1.395      2.066
REMARK  Name = 168679856
REMARK  8 active torsions:
REMARK  status: ('A' for Active; 'I' for Inactive)
REMARK    1  A    between atoms: O_4  and  C_23
REMARK    2  A    between atoms: O_4  and  C_28
REMARK    3  A    between atoms: O_5  and  C_24
REMARK    4  A    between atoms: O_5  and  C_29
REMARK    5  A    between atoms: N_10  and  C_19
REMARK    6  A    between atoms: C_14  and  C_18
REMARK    7  A    between atoms: C_16  and  C_20
REMARK    8  A    between atoms: C_23  and  C_24
REMARK                            x       y       z     vdW  Elec       q    Type
REMARK                         _______ _______ _______ _____ _____    ______ ____
ROOT
ATOM      1  N   UNL     1      88.722  -1.448  19.532  0.00  0.00    +0.000 N 
ATOM      2  N   UNL     1      88.892  -0.893  21.786  0.00  0.00    +0.000 NA
ATOM      3  N   UNL     1      90.626  -2.145  20.674  0.00  0.00    +0.000 NA
ATOM      4  N   UNL     1      88.196  -1.778  17.400  0.00  0.00    +0.000 NA
ATOM      5  C   UNL     1      89.621  -0.961  22.919  0.00  0.00    +0.000 A 
ATOM      6  C   UNL     1      89.446  -1.497  20.717  0.00  0.00    +0.000 A 
ATOM      7  C   UNL     1      91.301  -2.174  21.842  0.00  0.00    +0.000 A 
ATOM      8  C   UNL     1      90.843  -1.593  23.007  0.00  0.00    +0.000 A 
ATOM      9  C   UNL     1      87.508  -0.848  19.350  0.00  0.00    +0.000 A 
ATOM     10  C   UNL     1      89.095  -1.992  18.335  0.00  0.00    +0.000 A 
ATOM     11  C   UNL     1      87.204  -1.064  18.027  0.00  0.00    +0.000 A 
ENDROOT
BRANCH   7  15
ATOM     12  F   UNL     1      93.011  -3.299  23.078  0.00  0.00    +0.000 F 
ATOM     13  F   UNL     1      92.606  -4.002  21.061  0.00  0.00    +0.000 F 
ATOM     14  F   UNL     1      93.648  -2.120  21.371  0.00  0.00    +0.000 F 
ATOM     15  C   UNL     1      92.615  -2.882  21.839  0.00  0.00    +0.000 C 
ENDBRANCH   7  15
BRANCH   5  18
ATOM     16  O   UNL     1      88.417   0.749  23.938  0.00  0.00    +0.000 OA
ATOM     17  N   UNL     1      89.211  -0.972  25.330  0.00  0.00    +0.000 N 
ATOM     18  C   UNL     1      89.027  -0.300  24.111  0.00  0.00    +0.000 C 
ATOM     19  H   UNL     1      89.743  -1.839  25.296  0.00  0.00    +0.000 HD
BRANCH  17  22
ATOM     20  N   UNL     1      86.931  -0.290  28.133  0.00  0.00    +0.000 NA
ATOM     21  N   UNL     1      89.193   0.170  28.824  0.00  0.00    +0.000 NA
ATOM     22  C   UNL     1      88.751  -0.607  26.591  0.00  0.00    +0.000 A 
ATOM     23  C   UNL     1      87.412  -0.637  26.921  0.00  0.00    +0.000 A 
ATOM     24  C   UNL     1      89.604  -0.191  27.592  0.00  0.00    +0.000 A 
ATOM     25  C   UNL     1      87.863   0.098  29.025  0.00  0.00    +0.000 A 
BRANCH  25  26
ATOM     26  O   UNL     1      87.409   0.458  30.272  0.00  0.00    +0.000 OA
BRANCH  26  27
ATOM     27  C   UNL     1      87.926  -0.278  31.372  0.00  0.00    +0.000 C 
BRANCH  27  28
ATOM     28  C   UNL     1      86.850  -1.214  31.889  0.00  0.00    +0.000 C 
BRANCH  28  29
ATOM     29  O   UNL     1      85.574  -0.643  31.631  0.00  0.00    +0.000 OA
ATOM     30  C   UNL     1      84.635  -1.629  31.224  0.00  0.00    +0.000 C 
ENDBRANCH  28  29
ENDBRANCH  27  28
ENDBRANCH  26  27
ENDBRANCH  25  26
ENDBRANCH  17  22
ENDBRANCH   5  18
TORSDOF 7
