REMARK VINA RESULT:      -5.1      3.565      8.642
REMARK  Name = 155598690
REMARK  7 active torsions:
REMARK  status: ('A' for Active; 'I' for Inactive)
REMARK    1  A    between atoms: O_1  and  C_11
REMARK    2  A    between atoms: O_1  and  C_16
REMARK    3  A    between atoms: O_3  and  C_19
REMARK    4  A    between atoms: O_3  and  C_25
REMARK    5  A    between atoms: N_4  and  C_10
REMARK    6  A    between atoms: C_16  and  C_19
REMARK    7  A    between atoms: C_17  and  C_18
REMARK                            x       y       z     vdW  Elec       q    Type
REMARK                         _______ _______ _______ _____ _____    ______ ____
ROOT
ATOM      1  O   UNL     1      87.590  -3.417  27.417  0.00  0.00    +0.000 OA
ATOM      2  N   UNL     1      88.334  -1.235  27.660  0.00  0.00    +0.000 N 
ATOM      3  C   UNL     1      88.407  -2.533  27.178  0.00  0.00    +0.000 C 
ATOM      4  H   UNL     1      89.090  -0.587  27.450  0.00  0.00    +0.000 HD
ENDROOT
BRANCH   3  10
ATOM      5  N   UNL     1      89.743  -2.151  25.184  0.00  0.00    +0.000 NA
ATOM      6  N   UNL     1      90.663  -4.655  27.719  0.00  0.00    +0.000 N 
ATOM      7  N   UNL     1      91.792  -3.351  24.649  0.00  0.00    +0.000 NA
ATOM      8  N   UNL     1      90.946  -1.708  23.248  0.00  0.00    +0.000 N 
ATOM      9  N   UNL     1      91.783  -0.992  21.321  0.00  0.00    +0.000 NA
ATOM     10  C   UNL     1      89.588  -2.845  26.333  0.00  0.00    +0.000 A 
ATOM     11  C   UNL     1      90.534  -3.802  26.654  0.00  0.00    +0.000 A 
ATOM     12  C   UNL     1      91.614  -4.033  25.807  0.00  0.00    +0.000 A 
ATOM     13  C   UNL     1      90.822  -2.443  24.423  0.00  0.00    +0.000 A 
ATOM     14  C   UNL     1      92.403  -5.054  26.389  0.00  0.00    +0.000 A 
ATOM     15  C   UNL     1      91.793  -5.419  27.569  0.00  0.00    +0.000 A 
ATOM     16  C   UNL     1      90.092  -0.738  22.807  0.00  0.00    +0.000 A 
ATOM     17  C   UNL     1      91.945  -1.825  22.324  0.00  0.00    +0.000 A 
ATOM     18  C   UNL     1      90.629  -0.311  21.616  0.00  0.00    +0.000 A 
ATOM     19  H   UNL     1      90.023  -4.716  28.500  0.00  0.00    +0.000 HD
ENDBRANCH   3  10
BRANCH   2  20
ATOM     20  C   UNL     1      87.262  -0.785  28.514  0.00  0.00    +0.000 C 
ATOM     21  C   UNL     1      85.494   1.327  29.580  0.00  0.00    +0.000 C 
ATOM     22  C   UNL     1      87.777   0.245  29.524  0.00  0.00    +0.000 C 
ATOM     23  C   UNL     1      86.105  -0.225  27.682  0.00  0.00    +0.000 C 
ATOM     24  C   UNL     1      86.649   0.769  30.409  0.00  0.00    +0.000 C 
ATOM     25  C   UNL     1      84.983   0.300  28.573  0.00  0.00    +0.000 C 
BRANCH  21  26
ATOM     26  O   UNL     1      84.422   1.696  30.440  0.00  0.00    +0.000 OA
BRANCH  26  27
ATOM     27  C   UNL     1      83.556   2.634  29.820  0.00  0.00    +0.000 C 
BRANCH  27  28
ATOM     28  C   UNL     1      84.344   3.883  29.474  0.00  0.00    +0.000 C 
BRANCH  28  29
ATOM     29  O   UNL     1      83.705   4.548  28.391  0.00  0.00    +0.000 OA
ATOM     30  C   UNL     1      83.070   3.627  27.515  0.00  0.00    +0.000 C 
ENDBRANCH  28  29
ENDBRANCH  27  28
ENDBRANCH  26  27
ENDBRANCH  21  26
ENDBRANCH   2  20
TORSDOF 6
