REMARK VINA RESULT:      -5.1      1.909      7.466
REMARK  Name = 441667
REMARK  12 active torsions:
REMARK  status: ('A' for Active; 'I' for Inactive)
REMARK    1  A    between atoms: O_2  and  C_16
REMARK    2  A    between atoms: O_2  and  C_18
REMARK    3  A    between atoms: O_3  and  C_12
REMARK    4  A    between atoms: O_4  and  C_13
REMARK    5  A    between atoms: O_5  and  C_14
REMARK    6  A    between atoms: O_6  and  C_17
REMARK    7  A    between atoms: O_8  and  C_24
REMARK    8  A    between atoms: O_9  and  C_29
REMARK    9  A    between atoms: O_10  and  C_30
REMARK   10  A    between atoms: O_11  and  C_32
REMARK   11  A    between atoms: C_15  and  C_17
REMARK   12  A    between atoms: C_19  and  C_23
REMARK                            x       y       z     vdW  Elec       q    Type
REMARK                         _______ _______ _______ _____ _____    ______ ____
ROOT
ATOM      1  O   UNL     1      87.927   0.370  19.794  0.00  0.00    +0.000 OA
ATOM      2  C   UNL     1      88.397  -2.051  20.020  0.00  0.00    +0.000 A 
ATOM      3  C   UNL     1      88.103  -0.680  20.545  0.00  0.00    +0.000 A 
ATOM      4  C   UNL     1      88.531  -2.169  18.692  0.00  0.00    +0.000 A 
ATOM      5  C   UNL     1      88.379  -1.008  17.823  0.00  0.00    +0.000 A 
ATOM      6  C   UNL     1      88.069   0.227  18.401  0.00  0.00    +0.000 A 
ATOM      7  C   UNL     1      88.520  -1.106  16.435  0.00  0.00    +0.000 A 
ATOM      8  C   UNL     1      87.902   1.356  17.599  0.00  0.00    +0.000 A 
ATOM      9  C   UNL     1      88.353   0.025  15.635  0.00  0.00    +0.000 A 
ATOM     10  C   UNL     1      88.043   1.255  16.216  0.00  0.00    +0.000 A 
ENDROOT
BRANCH   3  11
ATOM     11  C   UNL     1      87.977  -0.523  22.013  0.00  0.00    +0.000 A 
ATOM     12  C   UNL     1      86.771  -0.824  22.636  0.00  0.00    +0.000 A 
ATOM     13  C   UNL     1      89.067  -0.078  22.753  0.00  0.00    +0.000 A 
ATOM     14  C   UNL     1      86.653  -0.676  24.019  0.00  0.00    +0.000 A 
ATOM     15  C   UNL     1      88.948   0.069  24.135  0.00  0.00    +0.000 A 
ATOM     16  C   UNL     1      87.742  -0.230  24.768  0.00  0.00    +0.000 A 
BRANCH  14  17
ATOM     17  O   UNL     1      85.470  -0.971  24.625  0.00  0.00    +0.000 OA
ATOM     18  H   UNL     1      84.985  -1.598  24.059  0.00  0.00    +0.000 HD
ENDBRANCH  14  17
BRANCH  16  19
ATOM     19  O   UNL     1      87.639  -0.080  26.118  0.00  0.00    +0.000 OA
ATOM     20  H   UNL     1      88.167   0.689  26.393  0.00  0.00    +0.000 HD
ENDBRANCH  16  19
ENDBRANCH   3  11
BRANCH   7  21
ATOM     21  O   UNL     1      88.819  -2.291  15.829  0.00  0.00    +0.000 OA
ATOM     22  H   UNL     1      88.059  -2.892  15.867  0.00  0.00    +0.000 HD
ENDBRANCH   7  21
BRANCH  10  23
ATOM     23  O   UNL     1      87.880   2.356  15.432  0.00  0.00    +0.000 OA
ATOM     24  H   UNL     1      88.584   2.372  14.761  0.00  0.00    +0.000 HD
ENDBRANCH  10  23
BRANCH   2  25
ATOM     25  O   UNL     1      88.469  -3.124  20.878  0.00  0.00    +0.000 OA
BRANCH  25  31
ATOM     26  O   UNL     1      90.752  -2.904  21.304  0.00  0.00    +0.000 OA
ATOM     27  C   UNL     1      90.454  -4.010  23.939  0.00  0.00    +0.000 C 
ATOM     28  C   UNL     1      91.819  -3.830  23.275  0.00  0.00    +0.000 C 
ATOM     29  C   UNL     1      89.336  -4.066  22.897  0.00  0.00    +0.000 C 
ATOM     30  C   UNL     1      91.785  -2.680  22.266  0.00  0.00    +0.000 C 
ATOM     31  C   UNL     1      89.453  -2.922  21.892  0.00  0.00    +0.000 C 
BRANCH  27  32
ATOM     32  O   UNL     1      90.479  -5.233  24.677  0.00  0.00    +0.000 OA
ATOM     33  H   UNL     1      89.560  -5.508  24.837  0.00  0.00    +0.000 HD
ENDBRANCH  27  32
BRANCH  28  34
ATOM     34  O   UNL     1      92.797  -3.552  24.274  0.00  0.00    +0.000 OA
ATOM     35  H   UNL     1      92.678  -4.193  24.994  0.00  0.00    +0.000 HD
ENDBRANCH  28  34
BRANCH  29  36
ATOM     36  O   UNL     1      88.072  -3.957  23.553  0.00  0.00    +0.000 OA
ATOM     37  H   UNL     1      88.213  -3.457  24.375  0.00  0.00    +0.000 HD
ENDBRANCH  29  36
BRANCH  30  38
ATOM     38  C   UNL     1      93.102  -2.555  21.506  0.00  0.00    +0.000 C 
BRANCH  38  39
ATOM     39  O   UNL     1      93.720  -3.829  21.464  0.00  0.00    +0.000 OA
ATOM     40  H   UNL     1      93.715  -4.129  20.539  0.00  0.00    +0.000 HD
ENDBRANCH  38  39
ENDBRANCH  30  38
ENDBRANCH  25  31
ENDBRANCH   2  25
TORSDOF 12
