REMARK VINA RESULT:      -5.2      3.979      5.553
REMARK  Name = 441667
REMARK  12 active torsions:
REMARK  status: ('A' for Active; 'I' for Inactive)
REMARK    1  A    between atoms: O_2  and  C_16
REMARK    2  A    between atoms: O_2  and  C_18
REMARK    3  A    between atoms: O_3  and  C_12
REMARK    4  A    between atoms: O_4  and  C_13
REMARK    5  A    between atoms: O_5  and  C_14
REMARK    6  A    between atoms: O_6  and  C_17
REMARK    7  A    between atoms: O_8  and  C_24
REMARK    8  A    between atoms: O_9  and  C_29
REMARK    9  A    between atoms: O_10  and  C_30
REMARK   10  A    between atoms: O_11  and  C_32
REMARK   11  A    between atoms: C_15  and  C_17
REMARK   12  A    between atoms: C_19  and  C_23
REMARK                            x       y       z     vdW  Elec       q    Type
REMARK                         _______ _______ _______ _____ _____    ______ ____
ROOT
ATOM      1  O   UNL     1      89.520  -0.539  26.994  0.00  0.00    +0.000 OA
ATOM      2  C   UNL     1      87.587  -1.298  25.643  0.00  0.00    +0.000 A 
ATOM      3  C   UNL     1      89.033  -0.982  25.869  0.00  0.00    +0.000 A 
ATOM      4  C   UNL     1      86.754  -1.056  26.663  0.00  0.00    +0.000 A 
ATOM      5  C   UNL     1      87.256  -0.523  27.925  0.00  0.00    +0.000 A 
ATOM      6  C   UNL     1      88.629  -0.292  28.055  0.00  0.00    +0.000 A 
ATOM      7  C   UNL     1      86.404  -0.256  29.001  0.00  0.00    +0.000 A 
ATOM      8  C   UNL     1      89.148   0.203  29.253  0.00  0.00    +0.000 A 
ATOM      9  C   UNL     1      86.925   0.239  30.198  0.00  0.00    +0.000 A 
ATOM     10  C   UNL     1      88.295   0.467  30.324  0.00  0.00    +0.000 A 
ENDROOT
BRANCH   3  11
ATOM     11  C   UNL     1      89.968  -1.219  24.744  0.00  0.00    +0.000 A 
ATOM     12  C   UNL     1      90.872  -2.274  24.810  0.00  0.00    +0.000 A 
ATOM     13  C   UNL     1      89.932  -0.384  23.632  0.00  0.00    +0.000 A 
ATOM     14  C   UNL     1      91.751  -2.496  23.750  0.00  0.00    +0.000 A 
ATOM     15  C   UNL     1      90.811  -0.608  22.573  0.00  0.00    +0.000 A 
ATOM     16  C   UNL     1      91.721  -1.663  22.632  0.00  0.00    +0.000 A 
BRANCH  14  17
ATOM     17  O   UNL     1      92.635  -3.530  23.819  0.00  0.00    +0.000 OA
ATOM     18  H   UNL     1      92.184  -4.338  23.514  0.00  0.00    +0.000 HD
ENDBRANCH  14  17
BRANCH  16  19
ATOM     19  O   UNL     1      92.576  -1.869  21.591  0.00  0.00    +0.000 OA
ATOM     20  H   UNL     1      93.472  -1.604  21.860  0.00  0.00    +0.000 HD
ENDBRANCH  16  19
ENDBRANCH   3  11
BRANCH   7  21
ATOM     21  O   UNL     1      85.060  -0.470  28.919  0.00  0.00    +0.000 OA
ATOM     22  H   UNL     1      84.851  -1.027  28.152  0.00  0.00    +0.000 HD
ENDBRANCH   7  21
BRANCH  10  23
ATOM     23  O   UNL     1      88.800   0.950  31.492  0.00  0.00    +0.000 OA
ATOM     24  H   UNL     1      89.734   1.187  31.358  0.00  0.00    +0.000 HD
ENDBRANCH  10  23
BRANCH   2  25
ATOM     25  O   UNL     1      87.174  -1.857  24.456  0.00  0.00    +0.000 OA
BRANCH  25  31
ATOM     26  O   UNL     1      85.426  -3.387  24.238  0.00  0.00    +0.000 OA
ATOM     27  C   UNL     1      83.729  -1.407  23.033  0.00  0.00    +0.000 C 
ATOM     28  C   UNL     1      83.393  -2.899  23.011  0.00  0.00    +0.000 C 
ATOM     29  C   UNL     1      85.227  -1.181  23.245  0.00  0.00    +0.000 C 
ATOM     30  C   UNL     1      84.016  -3.614  24.212  0.00  0.00    +0.000 C 
ATOM     31  C   UNL     1      85.756  -2.011  24.413  0.00  0.00    +0.000 C 
BRANCH  27  32
ATOM     32  O   UNL     1      83.335  -0.846  21.780  0.00  0.00    +0.000 OA
ATOM     33  H   UNL     1      83.459   0.118  21.828  0.00  0.00    +0.000 HD
ENDBRANCH  27  32
BRANCH  28  34
ATOM     34  O   UNL     1      81.978  -3.064  23.045  0.00  0.00    +0.000 OA
ATOM     35  H   UNL     1      81.615  -2.401  23.654  0.00  0.00    +0.000 HD
ENDBRANCH  28  34
BRANCH  29  36
ATOM     36  O   UNL     1      85.461   0.198  23.534  0.00  0.00    +0.000 OA
ATOM     37  H   UNL     1      86.424   0.331  23.554  0.00  0.00    +0.000 HD
ENDBRANCH  29  36
BRANCH  30  38
ATOM     38  C   UNL     1      83.793  -5.122  24.149  0.00  0.00    +0.000 C 
BRANCH  38  39
ATOM     39  O   UNL     1      83.610  -5.495  22.795  0.00  0.00    +0.000 OA
ATOM     40  H   UNL     1      84.150  -4.897  22.249  0.00  0.00    +0.000 HD
ENDBRANCH  38  39
ENDBRANCH  30  38
ENDBRANCH  25  31
ENDBRANCH   2  25
TORSDOF 12
