REMARK VINA RESULT:      -5.8      1.527      1.898
REMARK  Name = 441667
REMARK  12 active torsions:
REMARK  status: ('A' for Active; 'I' for Inactive)
REMARK    1  A    between atoms: O_2  and  C_16
REMARK    2  A    between atoms: O_2  and  C_18
REMARK    3  A    between atoms: O_3  and  C_12
REMARK    4  A    between atoms: O_4  and  C_13
REMARK    5  A    between atoms: O_5  and  C_14
REMARK    6  A    between atoms: O_6  and  C_17
REMARK    7  A    between atoms: O_8  and  C_24
REMARK    8  A    between atoms: O_9  and  C_29
REMARK    9  A    between atoms: O_10  and  C_30
REMARK   10  A    between atoms: O_11  and  C_32
REMARK   11  A    between atoms: C_15  and  C_17
REMARK   12  A    between atoms: C_19  and  C_23
REMARK                            x       y       z     vdW  Elec       q    Type
REMARK                         _______ _______ _______ _____ _____    ______ ____
ROOT
ATOM      1  O   UNL     1      88.601  -2.646  23.682  0.00  0.00    +0.000 OA
ATOM      2  C   UNL     1      88.549  -0.974  21.855  0.00  0.00    +0.000 A 
ATOM      3  C   UNL     1      89.178  -2.060  22.671  0.00  0.00    +0.000 A 
ATOM      4  C   UNL     1      87.332  -0.564  22.238  0.00  0.00    +0.000 A 
ATOM      5  C   UNL     1      86.671  -1.170  23.388  0.00  0.00    +0.000 A 
ATOM      6  C   UNL     1      87.322  -2.203  24.069  0.00  0.00    +0.000 A 
ATOM      7  C   UNL     1      85.404  -0.754  23.810  0.00  0.00    +0.000 A 
ATOM      8  C   UNL     1      86.713  -2.817  25.164  0.00  0.00    +0.000 A 
ATOM      9  C   UNL     1      84.797  -1.369  24.907  0.00  0.00    +0.000 A 
ATOM     10  C   UNL     1      85.450  -2.399  25.582  0.00  0.00    +0.000 A 
ENDROOT
BRANCH   3  11
ATOM     11  C   UNL     1      90.535  -2.509  22.279  0.00  0.00    +0.000 A 
ATOM     12  C   UNL     1      90.704  -3.760  21.697  0.00  0.00    +0.000 A 
ATOM     13  C   UNL     1      91.626  -1.675  22.497  0.00  0.00    +0.000 A 
ATOM     14  C   UNL     1      91.982  -4.183  21.328  0.00  0.00    +0.000 A 
ATOM     15  C   UNL     1      92.903  -2.098  22.128  0.00  0.00    +0.000 A 
ATOM     16  C   UNL     1      93.080  -3.352  21.544  0.00  0.00    +0.000 A 
BRANCH  14  17
ATOM     17  O   UNL     1      92.142  -5.409  20.758  0.00  0.00    +0.000 OA
ATOM     18  H   UNL     1      91.262  -5.810  20.642  0.00  0.00    +0.000 HD
ENDBRANCH  14  17
BRANCH  16  19
ATOM     19  O   UNL     1      94.333  -3.754  21.189  0.00  0.00    +0.000 OA
ATOM     20  H   UNL     1      94.444  -3.635  20.230  0.00  0.00    +0.000 HD
ENDBRANCH  16  19
ENDBRANCH   3  11
BRANCH   7  21
ATOM     21  O   UNL     1      84.731   0.247  23.174  0.00  0.00    +0.000 OA
ATOM     22  H   UNL     1      85.147   0.446  22.321  0.00  0.00    +0.000 HD
ENDBRANCH   7  21
BRANCH  10  23
ATOM     23  O   UNL     1      84.855  -2.997  26.650  0.00  0.00    +0.000 OA
ATOM     24  H   UNL     1      85.545  -3.331  27.250  0.00  0.00    +0.000 HD
ENDBRANCH  10  23
BRANCH   2  25
ATOM     25  O   UNL     1      89.189  -0.479  20.742  0.00  0.00    +0.000 OA
BRANCH  25  31
ATOM     26  O   UNL     1      89.317  -2.135  19.104  0.00  0.00    +0.000 OA
ATOM     27  C   UNL     1      88.224  -0.373  17.116  0.00  0.00    +0.000 C 
ATOM     28  C   UNL     1      88.889  -1.702  16.757  0.00  0.00    +0.000 C 
ATOM     29  C   UNL     1      88.689   0.127  18.484  0.00  0.00    +0.000 C 
ATOM     30  C   UNL     1      88.768  -2.699  17.911  0.00  0.00    +0.000 C 
ATOM     31  C   UNL     1      88.608  -0.977  19.537  0.00  0.00    +0.000 C 
BRANCH  27  32
ATOM     32  O   UNL     1      88.576   0.583  16.114  0.00  0.00    +0.000 OA
ATOM     33  H   UNL     1      87.755   0.909  15.706  0.00  0.00    +0.000 HD
ENDBRANCH  27  32
BRANCH  28  34
ATOM     34  O   UNL     1      88.264  -2.245  15.597  0.00  0.00    +0.000 OA
ATOM     35  H   UNL     1      87.796  -3.053  15.862  0.00  0.00    +0.000 HD
ENDBRANCH  28  34
BRANCH  29  36
ATOM     36  O   UNL     1      87.854   1.207  18.903  0.00  0.00    +0.000 OA
ATOM     37  H   UNL     1      88.412   1.831  19.398  0.00  0.00    +0.000 HD
ENDBRANCH  29  36
BRANCH  30  38
ATOM     38  C   UNL     1      89.525  -3.992  17.622  0.00  0.00    +0.000 C 
BRANCH  38  39
ATOM     39  O   UNL     1      90.605  -3.697  16.754  0.00  0.00    +0.000 OA
ATOM     40  H   UNL     1      91.419  -4.027  17.173  0.00  0.00    +0.000 HD
ENDBRANCH  38  39
ENDBRANCH  30  38
ENDBRANCH  25  31
ENDBRANCH   2  25
TORSDOF 12
