REMARK VINA RESULT:      -5.1      3.266      5.210
REMARK  Name = 441667
REMARK  12 active torsions:
REMARK  status: ('A' for Active; 'I' for Inactive)
REMARK    1  A    between atoms: O_2  and  C_16
REMARK    2  A    between atoms: O_2  and  C_18
REMARK    3  A    between atoms: O_3  and  C_12
REMARK    4  A    between atoms: O_4  and  C_13
REMARK    5  A    between atoms: O_5  and  C_14
REMARK    6  A    between atoms: O_6  and  C_17
REMARK    7  A    between atoms: O_8  and  C_24
REMARK    8  A    between atoms: O_9  and  C_29
REMARK    9  A    between atoms: O_10  and  C_30
REMARK   10  A    between atoms: O_11  and  C_32
REMARK   11  A    between atoms: C_15  and  C_17
REMARK   12  A    between atoms: C_19  and  C_23
REMARK                            x       y       z     vdW  Elec       q    Type
REMARK                         _______ _______ _______ _____ _____    ______ ____
ROOT
ATOM      1  O   UNL     1      89.576  -0.612  27.010  0.00  0.00    +0.000 OA
ATOM      2  C   UNL     1      87.794  -1.887  25.855  0.00  0.00    +0.000 A 
ATOM      3  C   UNL     1      89.142  -1.244  25.955  0.00  0.00    +0.000 A 
ATOM      4  C   UNL     1      86.983  -1.749  26.912  0.00  0.00    +0.000 A 
ATOM      5  C   UNL     1      87.420  -1.016  28.095  0.00  0.00    +0.000 A 
ATOM      6  C   UNL     1      88.710  -0.479  28.111  0.00  0.00    +0.000 A 
ATOM      7  C   UNL     1      86.588  -0.853  29.207  0.00  0.00    +0.000 A 
ATOM      8  C   UNL     1      89.169   0.216  29.232  0.00  0.00    +0.000 A 
ATOM      9  C   UNL     1      87.048  -0.157  30.326  0.00  0.00    +0.000 A 
ATOM     10  C   UNL     1      88.336   0.376  30.339  0.00  0.00    +0.000 A 
ENDROOT
BRANCH   3  11
ATOM     11  C   UNL     1      90.045  -1.364  24.786  0.00  0.00    +0.000 A 
ATOM     12  C   UNL     1      90.947  -2.419  24.718  0.00  0.00    +0.000 A 
ATOM     13  C   UNL     1      89.980  -0.418  23.769  0.00  0.00    +0.000 A 
ATOM     14  C   UNL     1      91.797  -2.531  23.617  0.00  0.00    +0.000 A 
ATOM     15  C   UNL     1      90.830  -0.531  22.668  0.00  0.00    +0.000 A 
ATOM     16  C   UNL     1      91.738  -1.587  22.592  0.00  0.00    +0.000 A 
BRANCH  14  17
ATOM     17  O   UNL     1      92.678  -3.567  23.555  0.00  0.00    +0.000 OA
ATOM     18  H   UNL     1      92.484  -4.086  22.754  0.00  0.00    +0.000 HD
ENDBRANCH  14  17
BRANCH  16  19
ATOM     19  O   UNL     1      92.563  -1.684  21.512  0.00  0.00    +0.000 OA
ATOM     20  H   UNL     1      92.027  -1.855  20.718  0.00  0.00    +0.000 HD
ENDBRANCH  16  19
ENDBRANCH   3  11
BRANCH   7  21
ATOM     21  O   UNL     1      85.324  -1.363  29.235  0.00  0.00    +0.000 OA
ATOM     22  H   UNL     1      84.824  -1.073  28.456  0.00  0.00    +0.000 HD
ENDBRANCH   7  21
BRANCH  10  23
ATOM     23  O   UNL     1      88.782   1.054  31.432  0.00  0.00    +0.000 OA
ATOM     24  H   UNL     1      88.398   1.947  31.427  0.00  0.00    +0.000 HD
ENDBRANCH  10  23
BRANCH   2  25
ATOM     25  O   UNL     1      87.454  -2.621  24.742  0.00  0.00    +0.000 OA
BRANCH  25  31
ATOM     26  O   UNL     1      85.270  -1.873  24.404  0.00  0.00    +0.000 OA
ATOM     27  C   UNL     1      85.599  -1.936  21.551  0.00  0.00    +0.000 C 
ATOM     28  C   UNL     1      84.229  -1.791  22.216  0.00  0.00    +0.000 C 
ATOM     29  C   UNL     1      86.612  -2.570  22.505  0.00  0.00    +0.000 C 
ATOM     30  C   UNL     1      84.360  -1.131  23.590  0.00  0.00    +0.000 C 
ATOM     31  C   UNL     1      86.593  -1.888  23.871  0.00  0.00    +0.000 C 
BRANCH  27  32
ATOM     32  O   UNL     1      85.445  -2.766  20.399  0.00  0.00    +0.000 OA
ATOM     33  H   UNL     1      85.089  -3.624  20.689  0.00  0.00    +0.000 HD
ENDBRANCH  27  32
BRANCH  28  34
ATOM     34  O   UNL     1      83.385  -0.996  21.389  0.00  0.00    +0.000 OA
ATOM     35  H   UNL     1      82.661  -1.560  21.072  0.00  0.00    +0.000 HD
ENDBRANCH  28  34
BRANCH  29  36
ATOM     36  O   UNL     1      87.924  -2.437  21.957  0.00  0.00    +0.000 OA
ATOM     37  H   UNL     1      88.130  -3.265  21.490  0.00  0.00    +0.000 HD
ENDBRANCH  29  36
BRANCH  30  38
ATOM     38  C   UNL     1      83.023  -1.081  24.323  0.00  0.00    +0.000 C 
BRANCH  38  39
ATOM     39  O   UNL     1      82.204  -2.131  23.838  0.00  0.00    +0.000 OA
ATOM     40  H   UNL     1      82.435  -2.937  24.331  0.00  0.00    +0.000 HD
ENDBRANCH  38  39
ENDBRANCH  30  38
ENDBRANCH  25  31
ENDBRANCH   2  25
TORSDOF 12
