REMARK VINA RESULT:      -5.4      2.242      3.328
REMARK  Name = 441667
REMARK  12 active torsions:
REMARK  status: ('A' for Active; 'I' for Inactive)
REMARK    1  A    between atoms: O_2  and  C_16
REMARK    2  A    between atoms: O_2  and  C_18
REMARK    3  A    between atoms: O_3  and  C_12
REMARK    4  A    between atoms: O_4  and  C_13
REMARK    5  A    between atoms: O_5  and  C_14
REMARK    6  A    between atoms: O_6  and  C_17
REMARK    7  A    between atoms: O_8  and  C_24
REMARK    8  A    between atoms: O_9  and  C_29
REMARK    9  A    between atoms: O_10  and  C_30
REMARK   10  A    between atoms: O_11  and  C_32
REMARK   11  A    between atoms: C_15  and  C_17
REMARK   12  A    between atoms: C_19  and  C_23
REMARK                            x       y       z     vdW  Elec       q    Type
REMARK                         _______ _______ _______ _____ _____    ______ ____
ROOT
ATOM      1  O   UNL     1      89.054  -3.252  25.408  0.00  0.00    +0.000 OA
ATOM      2  C   UNL     1      89.141  -0.941  24.522  0.00  0.00    +0.000 A 
ATOM      3  C   UNL     1      89.524  -2.388  24.552  0.00  0.00    +0.000 A 
ATOM      4  C   UNL     1      88.297  -0.523  25.474  0.00  0.00    +0.000 A 
ATOM      5  C   UNL     1      87.781  -1.453  26.472  0.00  0.00    +0.000 A 
ATOM      6  C   UNL     1      88.167  -2.795  26.400  0.00  0.00    +0.000 A 
ATOM      7  C   UNL     1      86.904  -1.038  27.479  0.00  0.00    +0.000 A 
ATOM      8  C   UNL     1      87.681  -3.717  27.328  0.00  0.00    +0.000 A 
ATOM      9  C   UNL     1      86.420  -1.962  28.407  0.00  0.00    +0.000 A 
ATOM     10  C   UNL     1      86.807  -3.299  28.331  0.00  0.00    +0.000 A 
ENDROOT
BRANCH   3  11
ATOM     11  C   UNL     1      90.477  -2.865  23.522  0.00  0.00    +0.000 A 
ATOM     12  C   UNL     1      89.998  -3.509  22.387  0.00  0.00    +0.000 A 
ATOM     13  C   UNL     1      91.841  -2.663  23.702  0.00  0.00    +0.000 A 
ATOM     14  C   UNL     1      90.896  -3.957  21.418  0.00  0.00    +0.000 A 
ATOM     15  C   UNL     1      92.738  -3.112  22.732  0.00  0.00    +0.000 A 
ATOM     16  C   UNL     1      92.266  -3.759  21.591  0.00  0.00    +0.000 A 
BRANCH  14  17
ATOM     17  O   UNL     1      90.422  -4.588  20.308  0.00  0.00    +0.000 OA
ATOM     18  H   UNL     1      89.457  -4.463  20.274  0.00  0.00    +0.000 HD
ENDBRANCH  14  17
BRANCH  16  19
ATOM     19  O   UNL     1      93.152  -4.193  20.652  0.00  0.00    +0.000 OA
ATOM     20  H   UNL     1      93.259  -5.156  20.739  0.00  0.00    +0.000 HD
ENDBRANCH  16  19
ENDBRANCH   3  11
BRANCH   7  21
ATOM     21  O   UNL     1      86.499   0.260  27.584  0.00  0.00    +0.000 OA
ATOM     22  H   UNL     1      86.013   0.529  26.788  0.00  0.00    +0.000 HD
ENDBRANCH   7  21
BRANCH  10  23
ATOM     23  O   UNL     1      86.332  -4.197  29.237  0.00  0.00    +0.000 OA
ATOM     24  H   UNL     1      85.376  -4.309  29.098  0.00  0.00    +0.000 HD
ENDBRANCH  10  23
BRANCH   2  25
ATOM     25  O   UNL     1      89.608  -0.119  23.521  0.00  0.00    +0.000 OA
BRANCH  25  31
ATOM     26  O   UNL     1      87.713  -1.065  22.542  0.00  0.00    +0.000 OA
ATOM     27  C   UNL     1      88.503  -0.157  19.934  0.00  0.00    +0.000 C 
ATOM     28  C   UNL     1      87.393  -1.187  20.142  0.00  0.00    +0.000 C 
ATOM     29  C   UNL     1      89.447  -0.110  21.136  0.00  0.00    +0.000 C 
ATOM     30  C   UNL     1      86.729  -1.002  21.508  0.00  0.00    +0.000 C 
ATOM     31  C   UNL     1      88.672  -0.013  22.449  0.00  0.00    +0.000 C 
BRANCH  27  32
ATOM     32  O   UNL     1      89.238  -0.527  18.766  0.00  0.00    +0.000 OA
ATOM     33  H   UNL     1      89.142  -1.487  18.641  0.00  0.00    +0.000 HD
ENDBRANCH  27  32
BRANCH  28  34
ATOM     34  O   UNL     1      86.414  -1.039  19.117  0.00  0.00    +0.000 OA
ATOM     35  H   UNL     1      85.723  -0.443  19.450  0.00  0.00    +0.000 HD
ENDBRANCH  28  34
BRANCH  29  36
ATOM     36  O   UNL     1      90.292   1.037  21.030  0.00  0.00    +0.000 OA
ATOM     37  H   UNL     1      90.108   1.605  21.798  0.00  0.00    +0.000 HD
ENDBRANCH  29  36
BRANCH  30  38
ATOM     38  C   UNL     1      85.698  -2.091  21.787  0.00  0.00    +0.000 C 
BRANCH  38  39
ATOM     39  O   UNL     1      84.432  -1.639  21.339  0.00  0.00    +0.000 OA
ATOM     40  H   UNL     1      84.266  -2.041  20.469  0.00  0.00    +0.000 HD
ENDBRANCH  38  39
ENDBRANCH  30  38
ENDBRANCH  25  31
ENDBRANCH   2  25
TORSDOF 12
