REMARK VINA RESULT:      -6.7      4.361      5.416
REMARK  Name = 5280443
REMARK  4 active torsions:
REMARK  status: ('A' for Active; 'I' for Inactive)
REMARK    1  A    between atoms: O_2  and  C_12
REMARK    2  A    between atoms: O_4  and  C_14
REMARK    3  A    between atoms: O_5  and  C_20
REMARK    4  A    between atoms: C_8  and  C_9
REMARK                            x       y       z     vdW  Elec       q    Type
REMARK                         _______ _______ _______ _____ _____    ______ ____
ROOT
ATOM      1  O   UNL     1      90.632   2.426  28.015  0.00  0.00    +0.000 OA
ATOM      2  O   UNL     1      94.661   1.818  27.992  0.00  0.00    +0.000 OA
ATOM      3  C   UNL     1      92.520   1.048  27.354  0.00  0.00    +0.000 A 
ATOM      4  C   UNL     1      91.154   1.317  27.398  0.00  0.00    +0.000 A 
ATOM      5  C   UNL     1      91.505   3.312  28.628  0.00  0.00    +0.000 A 
ATOM      6  C   UNL     1      93.450   1.990  27.995  0.00  0.00    +0.000 A 
ATOM      7  C   UNL     1      92.840   3.166  28.648  0.00  0.00    +0.000 A 
ATOM      8  C   UNL     1      92.994  -0.097  26.710  0.00  0.00    +0.000 A 
ATOM      9  C   UNL     1      90.250   0.440  26.796  0.00  0.00    +0.000 A 
ATOM     10  C   UNL     1      90.719  -0.705  26.152  0.00  0.00    +0.000 A 
ATOM     11  C   UNL     1      92.089  -0.974  26.110  0.00  0.00    +0.000 A 
ENDROOT
BRANCH   5  12
ATOM     12  C   UNL     1      90.841   4.471  29.256  0.00  0.00    +0.000 A 
ATOM     13  C   UNL     1      91.226   4.895  30.531  0.00  0.00    +0.000 A 
ATOM     14  C   UNL     1      89.825   5.149  28.578  0.00  0.00    +0.000 A 
ATOM     15  C   UNL     1      90.598   5.991  31.123  0.00  0.00    +0.000 A 
ATOM     16  C   UNL     1      89.198   6.245  29.171  0.00  0.00    +0.000 A 
ATOM     17  C   UNL     1      89.584   6.666  30.444  0.00  0.00    +0.000 A 
BRANCH  17  18
ATOM     18  O   UNL     1      88.973   7.735  31.022  0.00  0.00    +0.000 OA
ATOM     19  H   UNL     1      89.560   8.103  31.704  0.00  0.00    +0.000 HD
ENDBRANCH  17  18
ENDBRANCH   5  12
BRANCH   8  20
ATOM     20  O   UNL     1      94.319  -0.405  26.639  0.00  0.00    +0.000 OA
ATOM     21  H   UNL     1      94.590  -0.921  27.414  0.00  0.00    +0.000 HD
ENDBRANCH   8  20
BRANCH  10  22
ATOM     22  O   UNL     1      89.841  -1.563  25.564  0.00  0.00    +0.000 OA
ATOM     23  H   UNL     1      88.937  -1.321  25.830  0.00  0.00    +0.000 HD
ENDBRANCH  10  22
TORSDOF 4
