REMARK VINA RESULT:      -6.9      1.729      6.833
REMARK  Name = 5280443
REMARK  4 active torsions:
REMARK  status: ('A' for Active; 'I' for Inactive)
REMARK    1  A    between atoms: O_2  and  C_12
REMARK    2  A    between atoms: O_4  and  C_14
REMARK    3  A    between atoms: O_5  and  C_20
REMARK    4  A    between atoms: C_8  and  C_9
REMARK                            x       y       z     vdW  Elec       q    Type
REMARK                         _______ _______ _______ _____ _____    ______ ____
ROOT
ATOM      1  O   UNL     1      93.554   1.985  27.597  0.00  0.00    +0.000 OA
ATOM      2  O   UNL     1      94.652   4.091  24.287  0.00  0.00    +0.000 OA
ATOM      3  C   UNL     1      94.710   3.896  26.642  0.00  0.00    +0.000 A 
ATOM      4  C   UNL     1      94.302   3.128  27.730  0.00  0.00    +0.000 A 
ATOM      5  C   UNL     1      93.183   1.583  26.323  0.00  0.00    +0.000 A 
ATOM      6  C   UNL     1      94.327   3.467  25.287  0.00  0.00    +0.000 A 
ATOM      7  C   UNL     1      93.521   2.233  25.198  0.00  0.00    +0.000 A 
ATOM      8  C   UNL     1      95.471   5.050  26.837  0.00  0.00    +0.000 A 
ATOM      9  C   UNL     1      94.653   3.511  29.025  0.00  0.00    +0.000 A 
ATOM     10  C   UNL     1      95.413   4.664  29.225  0.00  0.00    +0.000 A 
ATOM     11  C   UNL     1      95.821   5.432  28.132  0.00  0.00    +0.000 A 
ENDROOT
BRANCH   5  12
ATOM     12  C   UNL     1      92.387   0.341  26.294  0.00  0.00    +0.000 A 
ATOM     13  C   UNL     1      91.045   0.376  25.906  0.00  0.00    +0.000 A 
ATOM     14  C   UNL     1      92.971  -0.876  26.654  0.00  0.00    +0.000 A 
ATOM     15  C   UNL     1      90.293  -0.799  25.878  0.00  0.00    +0.000 A 
ATOM     16  C   UNL     1      92.219  -2.050  26.626  0.00  0.00    +0.000 A 
ATOM     17  C   UNL     1      90.879  -2.012  26.238  0.00  0.00    +0.000 A 
BRANCH  17  18
ATOM     18  O   UNL     1      90.146  -3.157  26.210  0.00  0.00    +0.000 OA
ATOM     19  H   UNL     1      89.350  -3.008  25.671  0.00  0.00    +0.000 HD
ENDBRANCH  17  18
ENDBRANCH   5  12
BRANCH   8  20
ATOM     20  O   UNL     1      95.895   5.834  25.806  0.00  0.00    +0.000 OA
ATOM     21  H   UNL     1      96.519   5.348  25.245  0.00  0.00    +0.000 HD
ENDBRANCH   8  20
BRANCH  10  22
ATOM     22  O   UNL     1      95.758   5.040  30.487  0.00  0.00    +0.000 OA
ATOM     23  H   UNL     1      96.602   4.617  30.724  0.00  0.00    +0.000 HD
ENDBRANCH  10  22
TORSDOF 4
