REMARK VINA RESULT:      -7.2      4.024      4.450
REMARK  Name = 5280443
REMARK  4 active torsions:
REMARK  status: ('A' for Active; 'I' for Inactive)
REMARK    1  A    between atoms: O_2  and  C_12
REMARK    2  A    between atoms: O_4  and  C_14
REMARK    3  A    between atoms: O_5  and  C_20
REMARK    4  A    between atoms: C_8  and  C_9
REMARK                            x       y       z     vdW  Elec       q    Type
REMARK                         _______ _______ _______ _____ _____    ______ ____
ROOT
ATOM      1  O   UNL     1      91.652   1.750  28.221  0.00  0.00    +0.000 OA
ATOM      2  O   UNL     1      88.377  -0.371  27.051  0.00  0.00    +0.000 OA
ATOM      3  C   UNL     1      90.732  -0.253  27.201  0.00  0.00    +0.000 A 
ATOM      4  C   UNL     1      91.808   0.524  27.625  0.00  0.00    +0.000 A 
ATOM      5  C   UNL     1      90.367   2.239  28.399  0.00  0.00    +0.000 A 
ATOM      6  C   UNL     1      89.366   0.257  27.397  0.00  0.00    +0.000 A 
ATOM      7  C   UNL     1      89.252   1.583  28.040  0.00  0.00    +0.000 A 
ATOM      8  C   UNL     1      90.951  -1.495  26.601  0.00  0.00    +0.000 A 
ATOM      9  C   UNL     1      93.113   0.062  27.453  0.00  0.00    +0.000 A 
ATOM     10  C   UNL     1      93.336  -1.178  26.854  0.00  0.00    +0.000 A 
ATOM     11  C   UNL     1      92.257  -1.955  26.428  0.00  0.00    +0.000 A 
ENDROOT
BRANCH   5  12
ATOM     12  C   UNL     1      90.314   3.561  29.053  0.00  0.00    +0.000 A 
ATOM     13  C   UNL     1      91.039   3.793  30.226  0.00  0.00    +0.000 A 
ATOM     14  C   UNL     1      89.540   4.586  28.504  0.00  0.00    +0.000 A 
ATOM     15  C   UNL     1      90.990   5.043  30.843  0.00  0.00    +0.000 A 
ATOM     16  C   UNL     1      89.491   5.835  29.122  0.00  0.00    +0.000 A 
ATOM     17  C   UNL     1      90.215   6.064  30.292  0.00  0.00    +0.000 A 
BRANCH  17  18
ATOM     18  O   UNL     1      90.168   7.283  30.894  0.00  0.00    +0.000 OA
ATOM     19  H   UNL     1      90.548   7.208  31.787  0.00  0.00    +0.000 HD
ENDBRANCH  17  18
ENDBRANCH   5  12
BRANCH   8  20
ATOM     20  O   UNL     1      89.933  -2.292  26.169  0.00  0.00    +0.000 OA
ATOM     21  H   UNL     1      89.698  -2.941  26.850  0.00  0.00    +0.000 HD
ENDBRANCH   8  20
BRANCH  10  22
ATOM     22  O   UNL     1      94.609  -1.632  26.684  0.00  0.00    +0.000 OA
ATOM     23  H   UNL     1      95.226  -1.005  27.098  0.00  0.00    +0.000 HD
ENDBRANCH  10  22
TORSDOF 4
