REMARK VINA RESULT:      -7.9      0.000      0.000
REMARK  Name = 5280443
REMARK  4 active torsions:
REMARK  status: ('A' for Active; 'I' for Inactive)
REMARK    1  A    between atoms: O_2  and  C_12
REMARK    2  A    between atoms: O_4  and  C_14
REMARK    3  A    between atoms: O_5  and  C_20
REMARK    4  A    between atoms: C_8  and  C_9
REMARK                            x       y       z     vdW  Elec       q    Type
REMARK                         _______ _______ _______ _____ _____    ______ ____
ROOT
ATOM      1  O   UNL     1      93.963  -0.015  26.867  0.00  0.00    +0.000 OA
ATOM      2  O   UNL     1      90.185  -0.599  25.460  0.00  0.00    +0.000 OA
ATOM      3  C   UNL     1      92.060  -1.497  26.583  0.00  0.00    +0.000 A 
ATOM      4  C   UNL     1      93.349  -1.230  27.040  0.00  0.00    +0.000 A 
ATOM      5  C   UNL     1      93.271   0.986  26.201  0.00  0.00    +0.000 A 
ATOM      6  C   UNL     1      91.319  -0.435  25.884  0.00  0.00    +0.000 A 
ATOM      7  C   UNL     1      92.024   0.853  25.722  0.00  0.00    +0.000 A 
ATOM      8  C   UNL     1      91.485  -2.753  26.788  0.00  0.00    +0.000 A 
ATOM      9  C   UNL     1      94.072  -2.219  27.707  0.00  0.00    +0.000 A 
ATOM     10  C   UNL     1      93.501  -3.475  27.913  0.00  0.00    +0.000 A 
ATOM     11  C   UNL     1      92.209  -3.742  27.454  0.00  0.00    +0.000 A 
ENDROOT
BRANCH   5  12
ATOM     12  C   UNL     1      94.021   2.251  26.076  0.00  0.00    +0.000 A 
ATOM     13  C   UNL     1      93.815   3.082  24.971  0.00  0.00    +0.000 A 
ATOM     14  C   UNL     1      94.938   2.624  27.061  0.00  0.00    +0.000 A 
ATOM     15  C   UNL     1      94.523   4.279  24.853  0.00  0.00    +0.000 A 
ATOM     16  C   UNL     1      95.645   3.821  26.942  0.00  0.00    +0.000 A 
ATOM     17  C   UNL     1      95.438   4.648  25.839  0.00  0.00    +0.000 A 
BRANCH  17  18
ATOM     18  O   UNL     1      96.128   5.815  25.724  0.00  0.00    +0.000 OA
ATOM     19  H   UNL     1      97.007   5.626  25.352  0.00  0.00    +0.000 HD
ENDBRANCH  17  18
ENDBRANCH   5  12
BRANCH   8  20
ATOM     20  O   UNL     1      90.229  -3.064  26.361  0.00  0.00    +0.000 OA
ATOM     21  H   UNL     1      89.763  -3.591  27.029  0.00  0.00    +0.000 HD
ENDBRANCH   8  20
BRANCH  10  22
ATOM     22  O   UNL     1      94.204  -4.443  28.564  0.00  0.00    +0.000 OA
ATOM     23  H   UNL     1      93.966  -4.426  29.507  0.00  0.00    +0.000 HD
ENDBRANCH  10  22
TORSDOF 4
