REMARK VINA RESULT:      -6.8      1.918      2.308
REMARK  Name = 118736856
REMARK  9 active torsions:
REMARK  status: ('A' for Active; 'I' for Inactive)
REMARK    1  A    between atoms: O_2  and  C_11
REMARK    2  A    between atoms: O_2  and  C_15
REMARK    3  A    between atoms: O_3  and  C_19
REMARK    4  A    between atoms: O_3  and  C_27
REMARK    5  A    between atoms: N_5  and  C_8
REMARK    6  A    between atoms: N_5  and  C_14
REMARK    7  A    between atoms: N_6  and  C_25
REMARK    8  A    between atoms: C_15  and  C_19
REMARK    9  A    between atoms: C_23  and  C_26
REMARK                            x       y       z     vdW  Elec       q    Type
REMARK                         _______ _______ _______ _____ _____    ______ ____
ROOT
ATOM      1  O   UNL     1      88.949  -1.920  26.497  0.00  0.00    +0.000 OA
ATOM      2  N   UNL     1      90.869  -2.968  27.301  0.00  0.00    +0.000 N 
ATOM      3  C   UNL     1      92.312  -0.783  26.169  0.00  0.00    +0.000 A 
ATOM      4  C   UNL     1      93.029  -1.870  26.876  0.00  0.00    +0.000 A 
ATOM      5  C   UNL     1      90.976  -0.853  26.077  0.00  0.00    +0.000 A 
ATOM      6  C   UNL     1      92.295  -2.943  27.429  0.00  0.00    +0.000 A 
ATOM      7  C   UNL     1      94.431  -1.873  27.016  0.00  0.00    +0.000 A 
ATOM      8  C   UNL     1      90.171  -1.960  26.643  0.00  0.00    +0.000 A 
ATOM      9  C   UNL     1      92.983  -3.975  28.100  0.00  0.00    +0.000 A 
ATOM     10  C   UNL     1      95.095  -2.904  27.684  0.00  0.00    +0.000 A 
ATOM     11  C   UNL     1      94.370  -3.954  28.226  0.00  0.00    +0.000 A 
ATOM     12  C   UNL     1      90.124  -4.085  27.880  0.00  0.00    +0.000 C 
ENDROOT
BRANCH  10  15
ATOM     13  S   UNL     1      97.443  -1.682  26.983  0.00  0.00    +0.000 S 
ATOM     14  N   UNL     1      98.726  -3.391  28.438  0.00  0.00    +0.000 NA
ATOM     15  C   UNL     1      96.531  -2.876  27.812  0.00  0.00    +0.000 A 
ATOM     16  C   UNL     1      97.381  -3.690  28.531  0.00  0.00    +0.000 A 
ATOM     17  C   UNL     1      98.877  -2.351  27.648  0.00  0.00    +0.000 A 
ENDBRANCH  10  15
BRANCH   3  18
ATOM     18  N   UNL     1      93.009   0.264  25.628  0.00  0.00    +0.000 N 
ATOM     19  H   UNL     1      93.519   0.119  24.767  0.00  0.00    +0.000 HD
BRANCH  18  20
ATOM     20  C   UNL     1      92.913   1.619  26.123  0.00  0.00    +0.000 C 
ATOM     21  C   UNL     1      92.914   1.606  27.654  0.00  0.00    +0.000 C 
ATOM     22  C   UNL     1      94.074   2.448  25.569  0.00  0.00    +0.000 C 
ATOM     23  C   UNL     1      94.077   3.849  27.672  0.00  0.00    +0.000 C 
ATOM     24  C   UNL     1      92.917   3.021  28.223  0.00  0.00    +0.000 C 
ATOM     25  C   UNL     1      94.076   3.861  26.144  0.00  0.00    +0.000 C 
BRANCH  23  26
ATOM     26  O   UNL     1      93.958   5.180  28.162  0.00  0.00    +0.000 OA
BRANCH  26  27
ATOM     27  C   UNL     1      95.229   5.744  28.448  0.00  0.00    +0.000 C 
BRANCH  27  28
ATOM     28  C   UNL     1      95.974   4.825  29.398  0.00  0.00    +0.000 C 
BRANCH  28  29
ATOM     29  O   UNL     1      95.391   4.925  30.692  0.00  0.00    +0.000 OA
ATOM     30  C   UNL     1      95.217   3.647  31.285  0.00  0.00    +0.000 C 
ENDBRANCH  28  29
ENDBRANCH  27  28
ENDBRANCH  26  27
ENDBRANCH  23  26
ENDBRANCH  18  20
ENDBRANCH   3  18
TORSDOF 7
