REMARK VINA RESULT:      -6.9      4.177      7.420
REMARK  Name = 118736856
REMARK  9 active torsions:
REMARK  status: ('A' for Active; 'I' for Inactive)
REMARK    1  A    between atoms: O_2  and  C_11
REMARK    2  A    between atoms: O_2  and  C_15
REMARK    3  A    between atoms: O_3  and  C_19
REMARK    4  A    between atoms: O_3  and  C_27
REMARK    5  A    between atoms: N_5  and  C_8
REMARK    6  A    between atoms: N_5  and  C_14
REMARK    7  A    between atoms: N_6  and  C_25
REMARK    8  A    between atoms: C_15  and  C_19
REMARK    9  A    between atoms: C_23  and  C_26
REMARK                            x       y       z     vdW  Elec       q    Type
REMARK                         _______ _______ _______ _____ _____    ______ ____
ROOT
ATOM      1  O   UNL     1      91.508  -3.064  26.308  0.00  0.00    +0.000 OA
ATOM      2  N   UNL     1      90.330  -1.187  27.032  0.00  0.00    +0.000 N 
ATOM      3  C   UNL     1      92.872  -0.083  27.709  0.00  0.00    +0.000 A 
ATOM      4  C   UNL     1      91.630   0.689  27.948  0.00  0.00    +0.000 A 
ATOM      5  C   UNL     1      92.770  -1.306  27.169  0.00  0.00    +0.000 A 
ATOM      6  C   UNL     1      90.382   0.124  27.606  0.00  0.00    +0.000 A 
ATOM      7  C   UNL     1      91.650   1.980  28.512  0.00  0.00    +0.000 A 
ATOM      8  C   UNL     1      91.481  -1.934  26.796  0.00  0.00    +0.000 A 
ATOM      9  C   UNL     1      89.204   0.864  27.835  0.00  0.00    +0.000 A 
ATOM     10  C   UNL     1      90.473   2.698  28.733  0.00  0.00    +0.000 A 
ATOM     11  C   UNL     1      89.251   2.140  28.393  0.00  0.00    +0.000 A 
ATOM     12  C   UNL     1      89.031  -1.758  26.682  0.00  0.00    +0.000 C 
ENDROOT
BRANCH  10  15
ATOM     13  S   UNL     1      91.317   4.265  30.813  0.00  0.00    +0.000 S 
ATOM     14  N   UNL     1      90.255   6.317  29.655  0.00  0.00    +0.000 NA
ATOM     15  C   UNL     1      90.528   4.018  29.310  0.00  0.00    +0.000 A 
ATOM     16  C   UNL     1      90.029   5.218  28.848  0.00  0.00    +0.000 A 
ATOM     17  C   UNL     1      90.925   5.933  30.718  0.00  0.00    +0.000 A 
ENDBRANCH  10  15
BRANCH   3  18
ATOM     18  N   UNL     1      94.090   0.451  28.035  0.00  0.00    +0.000 N 
ATOM     19  H   UNL     1      94.123   1.247  28.658  0.00  0.00    +0.000 HD
BRANCH  18  20
ATOM     20  C   UNL     1      95.348  -0.169  27.682  0.00  0.00    +0.000 C 
ATOM     21  C   UNL     1      96.177   0.803  26.839  0.00  0.00    +0.000 C 
ATOM     22  C   UNL     1      96.089  -0.580  28.956  0.00  0.00    +0.000 C 
ATOM     23  C   UNL     1      98.299  -0.178  27.797  0.00  0.00    +0.000 C 
ATOM     24  C   UNL     1      97.557   0.231  26.527  0.00  0.00    +0.000 C 
ATOM     25  C   UNL     1      97.470  -1.147  28.640  0.00  0.00    +0.000 C 
BRANCH  23  26
ATOM     26  O   UNL     1      99.527  -0.795  27.428  0.00  0.00    +0.000 OA
BRANCH  26  27
ATOM     27  C   UNL     1      99.684  -0.835  26.017  0.00  0.00    +0.000 C 
BRANCH  27  28
ATOM     28  C   UNL     1      99.896  -2.273  25.584  0.00  0.00    +0.000 C 
BRANCH  28  29
ATOM     29  O   UNL     1      98.640  -2.941  25.558  0.00  0.00    +0.000 OA
ATOM     30  C   UNL     1      98.653  -4.107  26.369  0.00  0.00    +0.000 C 
ENDBRANCH  28  29
ENDBRANCH  27  28
ENDBRANCH  26  27
ENDBRANCH  23  26
ENDBRANCH  18  20
ENDBRANCH   3  18
TORSDOF 7
