REMARK VINA RESULT:      -7.1      1.588      1.943
REMARK  Name = 118736856
REMARK  9 active torsions:
REMARK  status: ('A' for Active; 'I' for Inactive)
REMARK    1  A    between atoms: O_2  and  C_11
REMARK    2  A    between atoms: O_2  and  C_15
REMARK    3  A    between atoms: O_3  and  C_19
REMARK    4  A    between atoms: O_3  and  C_27
REMARK    5  A    between atoms: N_5  and  C_8
REMARK    6  A    between atoms: N_5  and  C_14
REMARK    7  A    between atoms: N_6  and  C_25
REMARK    8  A    between atoms: C_15  and  C_19
REMARK    9  A    between atoms: C_23  and  C_26
REMARK                            x       y       z     vdW  Elec       q    Type
REMARK                         _______ _______ _______ _____ _____    ______ ____
ROOT
ATOM      1  O   UNL     1      89.031  -1.876  26.507  0.00  0.00    +0.000 OA
ATOM      2  N   UNL     1      90.927  -2.966  27.315  0.00  0.00    +0.000 N 
ATOM      3  C   UNL     1      92.416  -0.799  26.209  0.00  0.00    +0.000 A 
ATOM      4  C   UNL     1      93.109  -1.904  26.911  0.00  0.00    +0.000 A 
ATOM      5  C   UNL     1      91.080  -0.844  26.108  0.00  0.00    +0.000 A 
ATOM      6  C   UNL     1      92.353  -2.968  27.452  0.00  0.00    +0.000 A 
ATOM      7  C   UNL     1      94.510  -1.933  27.060  0.00  0.00    +0.000 A 
ATOM      8  C   UNL     1      90.252  -1.940  26.661  0.00  0.00    +0.000 A 
ATOM      9  C   UNL     1      93.017  -4.016  28.119  0.00  0.00    +0.000 A 
ATOM     10  C   UNL     1      95.150  -2.981  27.724  0.00  0.00    +0.000 A 
ATOM     11  C   UNL     1      94.404  -4.022  28.254  0.00  0.00    +0.000 A 
ATOM     12  C   UNL     1      90.158  -4.073  27.880  0.00  0.00    +0.000 C 
ENDROOT
BRANCH  10  15
ATOM     13  S   UNL     1      97.549  -2.049  26.789  0.00  0.00    +0.000 S 
ATOM     14  N   UNL     1      98.756  -3.420  28.618  0.00  0.00    +0.000 NA
ATOM     15  C   UNL     1      96.586  -2.980  27.860  0.00  0.00    +0.000 A 
ATOM     16  C   UNL     1      97.399  -3.637  28.761  0.00  0.00    +0.000 A 
ATOM     17  C   UNL     1      98.952  -2.600  27.610  0.00  0.00    +0.000 A 
ENDBRANCH  10  15
BRANCH   3  18
ATOM     18  N   UNL     1      93.135   0.240  25.680  0.00  0.00    +0.000 N 
ATOM     19  H   UNL     1      93.749   0.061  24.897  0.00  0.00    +0.000 HD
BRANCH  18  20
ATOM     20  C   UNL     1      92.933   1.620  26.064  0.00  0.00    +0.000 C 
ATOM     21  C   UNL     1      92.752   1.707  27.581  0.00  0.00    +0.000 C 
ATOM     22  C   UNL     1      94.122   2.459  25.592  0.00  0.00    +0.000 C 
ATOM     23  C   UNL     1      93.824   3.995  27.577  0.00  0.00    +0.000 C 
ATOM     24  C   UNL     1      92.637   3.156  28.046  0.00  0.00    +0.000 C 
ATOM     25  C   UNL     1      94.006   3.907  26.062  0.00  0.00    +0.000 C 
BRANCH  23  26
ATOM     26  O   UNL     1      93.600   5.349  27.954  0.00  0.00    +0.000 OA
BRANCH  26  27
ATOM     27  C   UNL     1      92.275   5.544  28.426  0.00  0.00    +0.000 C 
BRANCH  27  28
ATOM     28  C   UNL     1      91.757   6.873  27.910  0.00  0.00    +0.000 C 
BRANCH  28  29
ATOM     29  O   UNL     1      90.350   6.933  28.109  0.00  0.00    +0.000 OA
ATOM     30  C   UNL     1      89.842   5.706  28.611  0.00  0.00    +0.000 C 
ENDBRANCH  28  29
ENDBRANCH  27  28
ENDBRANCH  26  27
ENDBRANCH  23  26
ENDBRANCH  18  20
ENDBRANCH   3  18
TORSDOF 7
