REMARK VINA RESULT:      -6.3      2.134      2.578
REMARK  Name = 168679856
REMARK  8 active torsions:
REMARK  status: ('A' for Active; 'I' for Inactive)
REMARK    1  A    between atoms: O_4  and  C_23
REMARK    2  A    between atoms: O_4  and  C_28
REMARK    3  A    between atoms: O_5  and  C_24
REMARK    4  A    between atoms: O_5  and  C_29
REMARK    5  A    between atoms: N_10  and  C_19
REMARK    6  A    between atoms: C_14  and  C_18
REMARK    7  A    between atoms: C_16  and  C_20
REMARK    8  A    between atoms: C_23  and  C_24
REMARK                            x       y       z     vdW  Elec       q    Type
REMARK                         _______ _______ _______ _____ _____    ______ ____
ROOT
ATOM      1  N   UNL     1      92.704   3.211  30.645  0.00  0.00    +0.000 N 
ATOM      2  N   UNL     1      93.148   1.731  28.905  0.00  0.00    +0.000 NA
ATOM      3  N   UNL     1      90.886   2.263  29.546  0.00  0.00    +0.000 NA
ATOM      4  N   UNL     1      92.695   4.652  32.336  0.00  0.00    +0.000 NA
ATOM      5  C   UNL     1      92.647   0.916  27.954  0.00  0.00    +0.000 A 
ATOM      6  C   UNL     1      92.224   2.364  29.654  0.00  0.00    +0.000 A 
ATOM      7  C   UNL     1      90.455   1.430  28.575  0.00  0.00    +0.000 A 
ATOM      8  C   UNL     1      91.298   0.725  27.740  0.00  0.00    +0.000 A 
ATOM      9  C   UNL     1      94.017   3.462  30.930  0.00  0.00    +0.000 A 
ATOM     10  C   UNL     1      91.948   3.947  31.515  0.00  0.00    +0.000 A 
ATOM     11  C   UNL     1      93.986   4.353  31.976  0.00  0.00    +0.000 A 
ENDROOT
BRANCH   7  15
ATOM     12  F   UNL     1      88.350   2.457  28.095  0.00  0.00    +0.000 F 
ATOM     13  F   UNL     1      88.635   0.404  27.440  0.00  0.00    +0.000 F 
ATOM     14  F   UNL     1      88.348   0.846  29.549  0.00  0.00    +0.000 F 
ATOM     15  C   UNL     1      88.977   1.289  28.420  0.00  0.00    +0.000 C 
ENDBRANCH   7  15
BRANCH   5  18
ATOM     16  O   UNL     1      93.309  -0.142  25.990  0.00  0.00    +0.000 OA
ATOM     17  N   UNL     1      94.914   0.032  27.701  0.00  0.00    +0.000 N 
ATOM     18  C   UNL     1      93.650   0.208  27.115  0.00  0.00    +0.000 C 
ATOM     19  H   UNL     1      95.030   0.387  28.648  0.00  0.00    +0.000 HD
BRANCH  17  22
ATOM     20  N   UNL     1      98.210  -0.378  26.126  0.00  0.00    +0.000 NA
ATOM     21  N   UNL     1      97.249  -2.551  26.522  0.00  0.00    +0.000 NA
ATOM     22  C   UNL     1      96.041  -0.567  27.150  0.00  0.00    +0.000 A 
ATOM     23  C   UNL     1      97.102   0.171  26.667  0.00  0.00    +0.000 A 
ATOM     24  C   UNL     1      96.171  -1.937  27.051  0.00  0.00    +0.000 A 
ATOM     25  C   UNL     1      98.218  -1.724  26.085  0.00  0.00    +0.000 A 
BRANCH  25  26
ATOM     26  O   UNL     1      99.333  -2.317  25.541  0.00  0.00    +0.000 OA
BRANCH  26  27
ATOM     27  C   UNL     1     100.444  -1.467  25.291  0.00  0.00    +0.000 C 
BRANCH  27  28
ATOM     28  C   UNL     1     101.613  -1.917  26.147  0.00  0.00    +0.000 C 
BRANCH  28  29
ATOM     29  O   UNL     1     101.494  -1.334  27.439  0.00  0.00    +0.000 OA
ATOM     30  C   UNL     1     101.559   0.083  27.378  0.00  0.00    +0.000 C 
ENDBRANCH  28  29
ENDBRANCH  27  28
ENDBRANCH  26  27
ENDBRANCH  25  26
ENDBRANCH  17  22
ENDBRANCH   5  18
TORSDOF 7
