REMARK VINA RESULT:      -7.2      0.000      0.000
REMARK  Name = 118736856
REMARK  9 active torsions:
REMARK  status: ('A' for Active; 'I' for Inactive)
REMARK    1  A    between atoms: O_2  and  C_11
REMARK    2  A    between atoms: O_2  and  C_15
REMARK    3  A    between atoms: O_3  and  C_19
REMARK    4  A    between atoms: O_3  and  C_27
REMARK    5  A    between atoms: N_5  and  C_8
REMARK    6  A    between atoms: N_5  and  C_14
REMARK    7  A    between atoms: N_6  and  C_25
REMARK    8  A    between atoms: C_15  and  C_19
REMARK    9  A    between atoms: C_23  and  C_26
REMARK                            x       y       z     vdW  Elec       q    Type
REMARK                         _______ _______ _______ _____ _____    ______ ____
ROOT
ATOM      1  O   UNL     1      89.801   0.133  25.740  0.00  0.00    +0.000 OA
ATOM      2  N   UNL     1      91.034  -1.599  26.694  0.00  0.00    +0.000 N 
ATOM      3  C   UNL     1      93.302   0.108  26.407  0.00  0.00    +0.000 A 
ATOM      4  C   UNL     1      93.450  -1.243  26.999  0.00  0.00    +0.000 A 
ATOM      5  C   UNL     1      92.083   0.503  26.014  0.00  0.00    +0.000 A 
ATOM      6  C   UNL     1      92.314  -2.072  27.132  0.00  0.00    +0.000 A 
ATOM      7  C   UNL     1      94.695  -1.736  27.437  0.00  0.00    +0.000 A 
ATOM      8  C   UNL     1      90.869  -0.335  26.136  0.00  0.00    +0.000 A 
ATOM      9  C   UNL     1      92.460  -3.356  27.695  0.00  0.00    +0.000 A 
ATOM     10  C   UNL     1      94.820  -3.010  27.992  0.00  0.00    +0.000 A 
ATOM     11  C   UNL     1      93.703  -3.820  28.122  0.00  0.00    +0.000 A 
ATOM     12  C   UNL     1      89.869  -2.469  26.839  0.00  0.00    +0.000 C 
ENDROOT
BRANCH  10  15
ATOM     13  S   UNL     1      97.041  -2.544  29.524  0.00  0.00    +0.000 S 
ATOM     14  N   UNL     1      98.026  -4.796  28.721  0.00  0.00    +0.000 NA
ATOM     15  C   UNL     1      96.109  -3.484  28.432  0.00  0.00    +0.000 A 
ATOM     16  C   UNL     1      96.791  -4.642  28.120  0.00  0.00    +0.000 A 
ATOM     17  C   UNL     1      98.262  -3.751  29.482  0.00  0.00    +0.000 A 
ENDBRANCH  10  15
BRANCH   3  18
ATOM     18  N   UNL     1      94.394   0.923  26.273  0.00  0.00    +0.000 N 
ATOM     19  H   UNL     1      95.267   0.523  25.956  0.00  0.00    +0.000 HD
BRANCH  18  20
ATOM     20  C   UNL     1      94.325   2.364  26.385  0.00  0.00    +0.000 C 
ATOM     21  C   UNL     1      95.442   2.857  27.309  0.00  0.00    +0.000 C 
ATOM     22  C   UNL     1      94.431   2.990  24.993  0.00  0.00    +0.000 C 
ATOM     23  C   UNL     1      95.581   5.007  25.989  0.00  0.00    +0.000 C 
ATOM     24  C   UNL     1      95.474   4.381  27.378  0.00  0.00    +0.000 C 
ATOM     25  C   UNL     1      94.467   4.513  25.067  0.00  0.00    +0.000 C 
BRANCH  23  26
ATOM     26  O   UNL     1      95.501   6.422  26.121  0.00  0.00    +0.000 OA
BRANCH  26  27
ATOM     27  C   UNL     1      94.887   6.795  27.347  0.00  0.00    +0.000 C 
BRANCH  27  28
ATOM     28  C   UNL     1      93.787   7.800  27.062  0.00  0.00    +0.000 C 
BRANCH  28  29
ATOM     29  O   UNL     1      92.546   7.114  26.960  0.00  0.00    +0.000 OA
ATOM     30  C   UNL     1      92.317   6.279  28.086  0.00  0.00    +0.000 C 
ENDBRANCH  28  29
ENDBRANCH  27  28
ENDBRANCH  26  27
ENDBRANCH  23  26
ENDBRANCH  18  20
ENDBRANCH   3  18
TORSDOF 7
