REMARK VINA RESULT:      -6.2      3.850      9.714
REMARK  Name = 168679856
REMARK  8 active torsions:
REMARK  status: ('A' for Active; 'I' for Inactive)
REMARK    1  A    between atoms: O_4  and  C_23
REMARK    2  A    between atoms: O_4  and  C_28
REMARK    3  A    between atoms: O_5  and  C_24
REMARK    4  A    between atoms: O_5  and  C_29
REMARK    5  A    between atoms: N_10  and  C_19
REMARK    6  A    between atoms: C_14  and  C_18
REMARK    7  A    between atoms: C_16  and  C_20
REMARK    8  A    between atoms: C_23  and  C_24
REMARK                            x       y       z     vdW  Elec       q    Type
REMARK                         _______ _______ _______ _____ _____    ______ ____
ROOT
ATOM      1  N   UNL     1      94.730  -1.074  27.767  0.00  0.00    +0.000 N 
ATOM      2  N   UNL     1      93.499   0.826  28.307  0.00  0.00    +0.000 NA
ATOM      3  N   UNL     1      92.478  -1.048  27.186  0.00  0.00    +0.000 NA
ATOM      4  N   UNL     1      96.223  -2.682  27.428  0.00  0.00    +0.000 NA
ATOM      5  C   UNL     1      92.303   1.449  28.275  0.00  0.00    +0.000 A 
ATOM      6  C   UNL     1      93.514  -0.402  27.753  0.00  0.00    +0.000 A 
ATOM      7  C   UNL     1      91.313  -0.365  27.188  0.00  0.00    +0.000 A 
ATOM      8  C   UNL     1      91.165   0.898  27.724  0.00  0.00    +0.000 A 
ATOM      9  C   UNL     1      95.905  -0.609  28.287  0.00  0.00    +0.000 A 
ATOM     10  C   UNL     1      94.970  -2.321  27.262  0.00  0.00    +0.000 A 
ATOM     11  C   UNL     1      96.812  -1.619  28.067  0.00  0.00    +0.000 A 
ENDROOT
BRANCH   7  15
ATOM     12  F   UNL     1      88.941  -0.479  26.908  0.00  0.00    +0.000 F 
ATOM     13  F   UNL     1      90.178  -1.026  25.206  0.00  0.00    +0.000 F 
ATOM     14  F   UNL     1      90.020  -2.361  26.914  0.00  0.00    +0.000 F 
ATOM     15  C   UNL     1      90.137  -1.045  26.569  0.00  0.00    +0.000 C 
ENDBRANCH   7  15
BRANCH   5  18
ATOM     16  O   UNL     1      92.592   3.756  28.179  0.00  0.00    +0.000 OA
ATOM     17  N   UNL     1      91.824   2.861  30.214  0.00  0.00    +0.000 N 
ATOM     18  C   UNL     1      92.264   2.806  28.881  0.00  0.00    +0.000 C 
ATOM     19  H   UNL     1      91.586   1.974  30.652  0.00  0.00    +0.000 HD
BRANCH  17  22
ATOM     20  N   UNL     1      90.586   6.085  31.475  0.00  0.00    +0.000 NA
ATOM     21  N   UNL     1      92.265   5.240  32.982  0.00  0.00    +0.000 NA
ATOM     22  C   UNL     1      91.664   3.983  31.021  0.00  0.00    +0.000 A 
ATOM     23  C   UNL     1      90.766   4.984  30.716  0.00  0.00    +0.000 A 
ATOM     24  C   UNL     1      92.394   4.165  32.178  0.00  0.00    +0.000 A 
ATOM     25  C   UNL     1      91.356   6.148  32.578  0.00  0.00    +0.000 A 
BRANCH  25  26
ATOM     26  O   UNL     1      91.197   7.256  33.377  0.00  0.00    +0.000 OA
BRANCH  26  27
ATOM     27  C   UNL     1      89.915   7.439  33.960  0.00  0.00    +0.000 C 
BRANCH  27  28
ATOM     28  C   UNL     1      89.867   6.709  35.290  0.00  0.00    +0.000 C 
BRANCH  28  29
ATOM     29  O   UNL     1      88.706   5.891  35.329  0.00  0.00    +0.000 OA
ATOM     30  C   UNL     1      89.040   4.510  35.294  0.00  0.00    +0.000 C 
ENDBRANCH  28  29
ENDBRANCH  27  28
ENDBRANCH  26  27
ENDBRANCH  25  26
ENDBRANCH  17  22
ENDBRANCH   5  18
TORSDOF 7
