REMARK VINA RESULT:      -6.3      5.097      7.411
REMARK  Name = 155598690
REMARK  7 active torsions:
REMARK  status: ('A' for Active; 'I' for Inactive)
REMARK    1  A    between atoms: O_1  and  C_11
REMARK    2  A    between atoms: O_1  and  C_16
REMARK    3  A    between atoms: O_3  and  C_19
REMARK    4  A    between atoms: O_3  and  C_25
REMARK    5  A    between atoms: N_4  and  C_10
REMARK    6  A    between atoms: C_16  and  C_19
REMARK    7  A    between atoms: C_17  and  C_18
REMARK                            x       y       z     vdW  Elec       q    Type
REMARK                         _______ _______ _______ _____ _____    ______ ____
ROOT
ATOM      1  O   UNL     1      90.707   2.392  29.828  0.00  0.00    +0.000 OA
ATOM      2  N   UNL     1      91.301   1.931  27.634  0.00  0.00    +0.000 N 
ATOM      3  C   UNL     1      91.134   2.756  28.736  0.00  0.00    +0.000 C 
ATOM      4  H   UNL     1      91.611   2.338  26.755  0.00  0.00    +0.000 HD
ENDROOT
BRANCH   3  10
ATOM      5  N   UNL     1      92.679   4.468  27.969  0.00  0.00    +0.000 NA
ATOM      6  N   UNL     1      89.421   5.289  29.470  0.00  0.00    +0.000 N 
ATOM      7  N   UNL     1      92.259   6.862  28.101  0.00  0.00    +0.000 NA
ATOM      8  N   UNL     1      94.226   6.021  27.205  0.00  0.00    +0.000 N 
ATOM      9  N   UNL     1      95.944   7.157  26.375  0.00  0.00    +0.000 NA
ATOM     10  C   UNL     1      91.485   4.185  28.534  0.00  0.00    +0.000 A 
ATOM     11  C   UNL     1      90.663   5.238  28.891  0.00  0.00    +0.000 A 
ATOM     12  C   UNL     1      91.067   6.551  28.667  0.00  0.00    +0.000 A 
ATOM     13  C   UNL     1      92.989   5.771  27.789  0.00  0.00    +0.000 A 
ATOM     14  C   UNL     1      90.033   7.402  29.127  0.00  0.00    +0.000 A 
ATOM     15  C   UNL     1      89.030   6.595  29.618  0.00  0.00    +0.000 A 
ATOM     16  C   UNL     1      95.135   5.085  26.805  0.00  0.00    +0.000 A 
ATOM     17  C   UNL     1      94.754   7.251  26.926  0.00  0.00    +0.000 A 
ATOM     18  C   UNL     1      96.187   5.809  26.295  0.00  0.00    +0.000 A 
ATOM     19  H   UNL     1      88.873   4.485  29.748  0.00  0.00    +0.000 HD
ENDBRANCH   3  10
BRANCH   2  20
ATOM     20  C   UNL     1      90.979   0.524  27.664  0.00  0.00    +0.000 C 
ATOM     21  C   UNL     1      90.674  -2.104  26.354  0.00  0.00    +0.000 C 
ATOM     22  C   UNL     1      89.786   0.228  26.752  0.00  0.00    +0.000 C 
ATOM     23  C   UNL     1      92.200  -0.318  27.284  0.00  0.00    +0.000 C 
ATOM     24  C   UNL     1      89.457  -1.263  26.732  0.00  0.00    +0.000 C 
ATOM     25  C   UNL     1      91.864  -1.806  27.264  0.00  0.00    +0.000 C 
BRANCH  21  26
ATOM     26  O   UNL     1      90.352  -3.486  26.462  0.00  0.00    +0.000 OA
BRANCH  26  27
ATOM     27  C   UNL     1      90.999  -4.086  27.575  0.00  0.00    +0.000 C 
BRANCH  27  28
ATOM     28  C   UNL     1      89.978  -4.868  28.379  0.00  0.00    +0.000 C 
BRANCH  28  29
ATOM     29  O   UNL     1      90.341  -4.828  29.754  0.00  0.00    +0.000 OA
ATOM     30  C   UNL     1      89.327  -5.388  30.576  0.00  0.00    +0.000 C 
ENDBRANCH  28  29
ENDBRANCH  27  28
ENDBRANCH  26  27
ENDBRANCH  21  26
ENDBRANCH   2  20
TORSDOF 6
