REMARK VINA RESULT:      -6.0      4.145      8.833
REMARK  Name = 155598690
REMARK  7 active torsions:
REMARK  status: ('A' for Active; 'I' for Inactive)
REMARK    1  A    between atoms: O_1  and  C_11
REMARK    2  A    between atoms: O_1  and  C_16
REMARK    3  A    between atoms: O_3  and  C_19
REMARK    4  A    between atoms: O_3  and  C_25
REMARK    5  A    between atoms: N_4  and  C_10
REMARK    6  A    between atoms: C_16  and  C_19
REMARK    7  A    between atoms: C_17  and  C_18
REMARK                            x       y       z     vdW  Elec       q    Type
REMARK                         _______ _______ _______ _____ _____    ______ ____
ROOT
ATOM      1  O   UNL     1      94.521  -0.034  28.250  0.00  0.00    +0.000 OA
ATOM      2  N   UNL     1      95.639   0.829  26.411  0.00  0.00    +0.000 N 
ATOM      3  C   UNL     1      95.361  -0.141  27.361  0.00  0.00    +0.000 C 
ATOM      4  H   UNL     1      96.392   0.669  25.747  0.00  0.00    +0.000 HD
ENDROOT
BRANCH   3  10
ATOM      5  N   UNL     1      97.367  -1.312  26.643  0.00  0.00    +0.000 NA
ATOM      6  N   UNL     1      94.668  -2.988  28.502  0.00  0.00    +0.000 N 
ATOM      7  N   UNL     1      97.810  -3.668  27.063  0.00  0.00    +0.000 NA
ATOM      8  N   UNL     1      99.318  -2.335  25.913  0.00  0.00    +0.000 N 
ATOM      9  N   UNL     1     101.281  -2.919  25.055  0.00  0.00    +0.000 NA
ATOM     10  C   UNL     1      96.176  -1.380  27.279  0.00  0.00    +0.000 A 
ATOM     11  C   UNL     1      95.788  -2.595  27.814  0.00  0.00    +0.000 A 
ATOM     12  C   UNL     1      96.611  -3.710  27.695  0.00  0.00    +0.000 A 
ATOM     13  C   UNL     1      98.101  -2.445  26.575  0.00  0.00    +0.000 A 
ATOM     14  C   UNL     1      95.959  -4.794  28.332  0.00  0.00    +0.000 A 
ATOM     15  C   UNL     1      94.762  -4.320  28.821  0.00  0.00    +0.000 A 
ATOM     16  C   UNL     1      99.827  -1.205  25.339  0.00  0.00    +0.000 A 
ATOM     17  C   UNL     1     100.226  -3.338  25.718  0.00  0.00    +0.000 A 
ATOM     18  C   UNL     1     101.038  -1.590  24.815  0.00  0.00    +0.000 A 
ATOM     19  H   UNL     1      93.889  -2.389  28.741  0.00  0.00    +0.000 HD
ENDBRANCH   3  10
BRANCH   2  20
ATOM     20  C   UNL     1      94.950   2.097  26.375  0.00  0.00    +0.000 C 
ATOM     21  C   UNL     1      94.837   4.981  25.749  0.00  0.00    +0.000 C 
ATOM     22  C   UNL     1      95.674   3.126  27.248  0.00  0.00    +0.000 C 
ATOM     23  C   UNL     1      94.800   2.590  24.933  0.00  0.00    +0.000 C 
ATOM     24  C   UNL     1      94.988   4.488  27.187  0.00  0.00    +0.000 C 
ATOM     25  C   UNL     1      94.117   3.953  24.880  0.00  0.00    +0.000 C 
BRANCH  21  26
ATOM     26  O   UNL     1      94.093   6.193  25.735  0.00  0.00    +0.000 OA
BRANCH  26  27
ATOM     27  C   UNL     1      93.389   6.387  26.953  0.00  0.00    +0.000 C 
BRANCH  27  28
ATOM     28  C   UNL     1      92.840   7.800  26.989  0.00  0.00    +0.000 C 
BRANCH  28  29
ATOM     29  O   UNL     1      91.419   7.745  27.025  0.00  0.00    +0.000 OA
ATOM     30  C   UNL     1      90.957   6.961  28.117  0.00  0.00    +0.000 C 
ENDBRANCH  28  29
ENDBRANCH  27  28
ENDBRANCH  26  27
ENDBRANCH  21  26
ENDBRANCH   2  20
TORSDOF 6
