REMARK VINA RESULT:      -6.6      3.305      6.929
REMARK  Name = 118736856
REMARK  9 active torsions:
REMARK  status: ('A' for Active; 'I' for Inactive)
REMARK    1  A    between atoms: O_2  and  C_11
REMARK    2  A    between atoms: O_2  and  C_15
REMARK    3  A    between atoms: O_3  and  C_19
REMARK    4  A    between atoms: O_3  and  C_27
REMARK    5  A    between atoms: N_5  and  C_8
REMARK    6  A    between atoms: N_5  and  C_14
REMARK    7  A    between atoms: N_6  and  C_25
REMARK    8  A    between atoms: C_15  and  C_19
REMARK    9  A    between atoms: C_23  and  C_26
REMARK                            x       y       z     vdW  Elec       q    Type
REMARK                         _______ _______ _______ _____ _____    ______ ____
ROOT
ATOM      1  O   UNL     1      92.901   7.140  29.431  0.00  0.00    +0.000 OA
ATOM      2  N   UNL     1      91.515   5.268  29.345  0.00  0.00    +0.000 N 
ATOM      3  C   UNL     1      93.453   4.146  27.577  0.00  0.00    +0.000 A 
ATOM      4  C   UNL     1      92.239   3.380  27.943  0.00  0.00    +0.000 A 
ATOM      5  C   UNL     1      93.616   5.372  28.095  0.00  0.00    +0.000 A 
ATOM      6  C   UNL     1      91.292   3.954  28.820  0.00  0.00    +0.000 A 
ATOM      7  C   UNL     1      91.992   2.087  27.442  0.00  0.00    +0.000 A 
ATOM      8  C   UNL     1      92.647   6.008  29.018  0.00  0.00    +0.000 A 
ATOM      9  C   UNL     1      90.138   3.220  29.165  0.00  0.00    +0.000 A 
ATOM     10  C   UNL     1      90.843   1.375  27.794  0.00  0.00    +0.000 A 
ATOM     11  C   UNL     1      89.918   1.942  28.656  0.00  0.00    +0.000 A 
ATOM     12  C   UNL     1      90.526   5.848  30.251  0.00  0.00    +0.000 C 
ENDROOT
BRANCH  10  15
ATOM     13  S   UNL     1      91.956  -0.945  26.860  0.00  0.00    +0.000 S 
ATOM     14  N   UNL     1      89.581  -1.895  26.489  0.00  0.00    +0.000 NA
ATOM     15  C   UNL     1      90.621   0.052  27.265  0.00  0.00    +0.000 A 
ATOM     16  C   UNL     1      89.445  -0.620  27.002  0.00  0.00    +0.000 A 
ATOM     17  C   UNL     1      90.860  -2.173  26.372  0.00  0.00    +0.000 A 
ENDBRANCH  10  15
BRANCH   3  18
ATOM     18  N   UNL     1      94.381   3.603  26.729  0.00  0.00    +0.000 N 
ATOM     19  H   UNL     1      94.354   3.853  25.750  0.00  0.00    +0.000 HD
BRANCH  18  20
ATOM     20  C   UNL     1      95.514   2.828  27.185  0.00  0.00    +0.000 C 
ATOM     21  C   UNL     1      95.466   2.703  28.711  0.00  0.00    +0.000 C 
ATOM     22  C   UNL     1      95.498   1.455  26.510  0.00  0.00    +0.000 C 
ATOM     23  C   UNL     1      96.571   0.436  28.559  0.00  0.00    +0.000 C 
ATOM     24  C   UNL     1      96.587   1.807  29.231  0.00  0.00    +0.000 C 
ATOM     25  C   UNL     1      96.617   0.560  27.036  0.00  0.00    +0.000 C 
BRANCH  23  26
ATOM     26  O   UNL     1      97.698  -0.305  29.012  0.00  0.00    +0.000 OA
BRANCH  26  27
ATOM     27  C   UNL     1      97.606  -1.672  28.638  0.00  0.00    +0.000 C 
BRANCH  27  28
ATOM     28  C   UNL     1      96.694  -2.391  29.614  0.00  0.00    +0.000 C 
BRANCH  28  29
ATOM     29  O   UNL     1      96.035  -3.454  28.938  0.00  0.00    +0.000 OA
ATOM     30  C   UNL     1      95.341  -2.991  27.789  0.00  0.00    +0.000 C 
ENDBRANCH  28  29
ENDBRANCH  27  28
ENDBRANCH  26  27
ENDBRANCH  23  26
ENDBRANCH  18  20
ENDBRANCH   3  18
TORSDOF 7
