REMARK VINA RESULT:      -5.9      1.720      3.785
REMARK  Name = 155598690
REMARK  7 active torsions:
REMARK  status: ('A' for Active; 'I' for Inactive)
REMARK    1  A    between atoms: O_1  and  C_11
REMARK    2  A    between atoms: O_1  and  C_16
REMARK    3  A    between atoms: O_3  and  C_19
REMARK    4  A    between atoms: O_3  and  C_25
REMARK    5  A    between atoms: N_4  and  C_10
REMARK    6  A    between atoms: C_16  and  C_19
REMARK    7  A    between atoms: C_17  and  C_18
REMARK                            x       y       z     vdW  Elec       q    Type
REMARK                         _______ _______ _______ _____ _____    ______ ____
ROOT
ATOM      1  O   UNL     1      95.483   1.512  25.643  0.00  0.00    +0.000 OA
ATOM      2  N   UNL     1      95.663   0.206  27.551  0.00  0.00    +0.000 N 
ATOM      3  C   UNL     1      95.110   1.212  26.774  0.00  0.00    +0.000 C 
ATOM      4  H   UNL     1      95.320   0.069  28.498  0.00  0.00    +0.000 HD
ENDROOT
BRANCH   3  10
ATOM      5  N   UNL     1      92.768   1.425  27.391  0.00  0.00    +0.000 NA
ATOM      6  N   UNL     1      95.249   4.034  28.155  0.00  0.00    +0.000 N 
ATOM      7  N   UNL     1      91.820   3.338  28.557  0.00  0.00    +0.000 NA
ATOM      8  N   UNL     1      90.514   1.527  27.934  0.00  0.00    +0.000 N 
ATOM      9  N   UNL     1      88.337   1.235  28.261  0.00  0.00    +0.000 NA
ATOM     10  C   UNL     1      94.001   1.978  27.399  0.00  0.00    +0.000 A 
ATOM     11  C   UNL     1      94.158   3.220  27.986  0.00  0.00    +0.000 A 
ATOM     12  C   UNL     1      93.066   3.872  28.552  0.00  0.00    +0.000 A 
ATOM     13  C   UNL     1      91.767   2.129  27.963  0.00  0.00    +0.000 A 
ATOM     14  C   UNL     1      93.526   5.107  29.069  0.00  0.00    +0.000 A 
ATOM     15  C   UNL     1      94.877   5.180  28.810  0.00  0.00    +0.000 A 
ATOM     16  C   UNL     1      90.214   0.310  27.391  0.00  0.00    +0.000 A 
ATOM     17  C   UNL     1      89.357   2.044  28.445  0.00  0.00    +0.000 A 
ATOM     18  C   UNL     1      88.865   0.151  27.605  0.00  0.00    +0.000 A 
ATOM     19  H   UNL     1      96.188   3.823  27.843  0.00  0.00    +0.000 HD
ENDBRANCH   3  10
BRANCH   2  20
ATOM     20  C   UNL     1      96.763  -0.608  27.095  0.00  0.00    +0.000 C 
ATOM     21  C   UNL     1      98.816  -2.687  27.524  0.00  0.00    +0.000 C 
ATOM     22  C   UNL     1      98.021  -0.321  27.919  0.00  0.00    +0.000 C 
ATOM     23  C   UNL     1      96.391  -2.093  27.136  0.00  0.00    +0.000 C 
ATOM     24  C   UNL     1      99.186  -1.206  27.484  0.00  0.00    +0.000 C 
ATOM     25  C   UNL     1      97.561  -2.972  26.703  0.00  0.00    +0.000 C 
BRANCH  21  26
ATOM     26  O   UNL     1      99.889  -3.463  27.001  0.00  0.00    +0.000 OA
BRANCH  26  27
ATOM     27  C   UNL     1     100.969  -2.642  26.583  0.00  0.00    +0.000 C 
BRANCH  27  28
ATOM     28  C   UNL     1     101.874  -3.442  25.666  0.00  0.00    +0.000 C 
BRANCH  28  29
ATOM     29  O   UNL     1     101.812  -2.891  24.357  0.00  0.00    +0.000 OA
ATOM     30  C   UNL     1     101.272  -1.576  24.371  0.00  0.00    +0.000 C 
ENDBRANCH  28  29
ENDBRANCH  27  28
ENDBRANCH  26  27
ENDBRANCH  21  26
ENDBRANCH   2  20
TORSDOF 6
