REMARK VINA RESULT:      -6.2      4.372      5.594
REMARK  Name = 168679856
REMARK  8 active torsions:
REMARK  status: ('A' for Active; 'I' for Inactive)
REMARK    1  A    between atoms: O_4  and  C_23
REMARK    2  A    between atoms: O_4  and  C_28
REMARK    3  A    between atoms: O_5  and  C_24
REMARK    4  A    between atoms: O_5  and  C_29
REMARK    5  A    between atoms: N_10  and  C_19
REMARK    6  A    between atoms: C_14  and  C_18
REMARK    7  A    between atoms: C_16  and  C_20
REMARK    8  A    between atoms: C_23  and  C_24
REMARK                            x       y       z     vdW  Elec       q    Type
REMARK                         _______ _______ _______ _____ _____    ______ ____
ROOT
ATOM      1  N   UNL     1      92.190   4.180  28.965  0.00  0.00    +0.000 N 
ATOM      2  N   UNL     1      93.409   2.279  28.401  0.00  0.00    +0.000 NA
ATOM      3  N   UNL     1      93.411   4.231  26.986  0.00  0.00    +0.000 NA
ATOM      4  N   UNL     1      90.914   5.774  29.839  0.00  0.00    +0.000 NA
ATOM      5  C   UNL     1      94.234   1.683  27.517  0.00  0.00    +0.000 A 
ATOM      6  C   UNL     1      93.042   3.535  28.078  0.00  0.00    +0.000 A 
ATOM      7  C   UNL     1      94.238   3.573  26.145  0.00  0.00    +0.000 A 
ATOM      8  C   UNL     1      94.687   2.286  26.362  0.00  0.00    +0.000 A 
ATOM      9  C   UNL     1      91.691   3.664  30.128  0.00  0.00    +0.000 A 
ATOM     10  C   UNL     1      91.696   5.448  28.834  0.00  0.00    +0.000 A 
ATOM     11  C   UNL     1      90.908   4.666  30.650  0.00  0.00    +0.000 A 
ENDROOT
BRANCH   7  15
ATOM     12  F   UNL     1      93.749   5.206  24.469  0.00  0.00    +0.000 F 
ATOM     13  F   UNL     1      95.815   5.028  25.121  0.00  0.00    +0.000 F 
ATOM     14  F   UNL     1      94.934   3.495  23.856  0.00  0.00    +0.000 F 
ATOM     15  C   UNL     1      94.673   4.309  24.922  0.00  0.00    +0.000 C 
ENDBRANCH   7  15
BRANCH   5  18
ATOM     16  O   UNL     1      94.637  -0.539  26.957  0.00  0.00    +0.000 OA
ATOM     17  N   UNL     1      95.049   0.091  29.186  0.00  0.00    +0.000 N 
ATOM     18  C   UNL     1      94.651   0.296  27.855  0.00  0.00    +0.000 C 
ATOM     19  H   UNL     1      95.003   0.898  29.804  0.00  0.00    +0.000 HD
BRANCH  17  22
ATOM     20  N   UNL     1      97.239  -2.725  30.074  0.00  0.00    +0.000 NA
ATOM     21  N   UNL     1      95.144  -2.956  31.241  0.00  0.00    +0.000 NA
ATOM     22  C   UNL     1      95.506  -1.083  29.775  0.00  0.00    +0.000 A 
ATOM     23  C   UNL     1      96.764  -1.591  29.520  0.00  0.00    +0.000 A 
ATOM     24  C   UNL     1      94.733  -1.815  30.652  0.00  0.00    +0.000 A 
ATOM     25  C   UNL     1      96.390  -3.349  30.912  0.00  0.00    +0.000 A 
BRANCH  25  26
ATOM     26  O   UNL     1      96.843  -4.509  31.496  0.00  0.00    +0.000 OA
BRANCH  26  27
ATOM     27  C   UNL     1      96.576  -4.667  32.883  0.00  0.00    +0.000 C 
BRANCH  27  28
ATOM     28  C   UNL     1      97.749  -4.123  33.676  0.00  0.00    +0.000 C 
BRANCH  28  29
ATOM     29  O   UNL     1      97.281  -3.648  34.932  0.00  0.00    +0.000 OA
ATOM     30  C   UNL     1      96.333  -4.538  35.504  0.00  0.00    +0.000 C 
ENDBRANCH  28  29
ENDBRANCH  27  28
ENDBRANCH  26  27
ENDBRANCH  25  26
ENDBRANCH  17  22
ENDBRANCH   5  18
TORSDOF 7
