REMARK VINA RESULT:      -6.9      0.000      0.000
REMARK  Name = 155598690
REMARK  7 active torsions:
REMARK  status: ('A' for Active; 'I' for Inactive)
REMARK    1  A    between atoms: O_1  and  C_11
REMARK    2  A    between atoms: O_1  and  C_16
REMARK    3  A    between atoms: O_3  and  C_19
REMARK    4  A    between atoms: O_3  and  C_25
REMARK    5  A    between atoms: N_4  and  C_10
REMARK    6  A    between atoms: C_16  and  C_19
REMARK    7  A    between atoms: C_17  and  C_18
REMARK                            x       y       z     vdW  Elec       q    Type
REMARK                         _______ _______ _______ _____ _____    ______ ____
ROOT
ATOM      1  O   UNL     1      93.513  -1.545  26.292  0.00  0.00    +0.000 OA
ATOM      2  N   UNL     1      94.708  -0.068  27.621  0.00  0.00    +0.000 N 
ATOM      3  C   UNL     1      93.555  -0.573  27.040  0.00  0.00    +0.000 C 
ATOM      4  H   UNL     1      94.648   0.777  28.184  0.00  0.00    +0.000 HD
ENDROOT
BRANCH   3  10
ATOM      5  N   UNL     1      92.403   1.384  27.907  0.00  0.00    +0.000 NA
ATOM      6  N   UNL     1      90.597  -1.526  26.562  0.00  0.00    +0.000 N 
ATOM      7  N   UNL     1      89.984   1.638  27.982  0.00  0.00    +0.000 NA
ATOM      8  N   UNL     1      91.404   3.299  28.758  0.00  0.00    +0.000 N 
ATOM      9  N   UNL     1      90.857   5.262  29.640  0.00  0.00    +0.000 NA
ATOM     10  C   UNL     1      92.299   0.158  27.350  0.00  0.00    +0.000 A 
ATOM     11  C   UNL     1      91.035  -0.345  27.103  0.00  0.00    +0.000 A 
ATOM     12  C   UNL     1      89.907   0.405  27.423  0.00  0.00    +0.000 A 
ATOM     13  C   UNL     1      91.255   2.040  28.185  0.00  0.00    +0.000 A 
ATOM     14  C   UNL     1      88.769  -0.357  27.060  0.00  0.00    +0.000 A 
ATOM     15  C   UNL     1      89.225  -1.544  26.531  0.00  0.00    +0.000 A 
ATOM     16  C   UNL     1      92.585   3.917  29.056  0.00  0.00    +0.000 A 
ATOM     17  C   UNL     1      90.395   4.144  29.125  0.00  0.00    +0.000 A 
ATOM     18  C   UNL     1      92.222   5.127  29.600  0.00  0.00    +0.000 A 
ATOM     19  H   UNL     1      91.194  -2.275  26.233  0.00  0.00    +0.000 HD
ENDBRANCH   3  10
BRANCH   2  20
ATOM     20  C   UNL     1      96.008  -0.651  27.395  0.00  0.00    +0.000 C 
ATOM     21  C   UNL     1      98.953  -0.606  27.605  0.00  0.00    +0.000 C 
ATOM     22  C   UNL     1      96.853   0.253  26.494  0.00  0.00    +0.000 C 
ATOM     23  C   UNL     1      96.713  -0.934  28.725  0.00  0.00    +0.000 C 
ATOM     24  C   UNL     1      98.250  -0.322  26.279  0.00  0.00    +0.000 C 
ATOM     25  C   UNL     1      98.110  -1.507  28.503  0.00  0.00    +0.000 C 
BRANCH  21  26
ATOM     26  O   UNL     1     100.200  -1.247  27.358  0.00  0.00    +0.000 OA
BRANCH  26  27
ATOM     27  C   UNL     1     100.337  -1.608  25.992  0.00  0.00    +0.000 C 
BRANCH  27  28
ATOM     28  C   UNL     1     100.909  -3.010  25.905  0.00  0.00    +0.000 C 
BRANCH  28  29
ATOM     29  O   UNL     1     101.518  -3.185  24.632  0.00  0.00    +0.000 OA
ATOM     30  C   UNL     1     101.871  -1.938  24.049  0.00  0.00    +0.000 C 
ENDBRANCH  28  29
ENDBRANCH  27  28
ENDBRANCH  26  27
ENDBRANCH  21  26
ENDBRANCH   2  20
TORSDOF 6
