REMARK VINA RESULT:      -5.9      3.410      9.499
REMARK  Name = 155598690
REMARK  7 active torsions:
REMARK  status: ('A' for Active; 'I' for Inactive)
REMARK    1  A    between atoms: O_1  and  C_11
REMARK    2  A    between atoms: O_1  and  C_16
REMARK    3  A    between atoms: O_3  and  C_19
REMARK    4  A    between atoms: O_3  and  C_25
REMARK    5  A    between atoms: N_4  and  C_10
REMARK    6  A    between atoms: C_16  and  C_19
REMARK    7  A    between atoms: C_17  and  C_18
REMARK                            x       y       z     vdW  Elec       q    Type
REMARK                         _______ _______ _______ _____ _____    ______ ____
ROOT
ATOM      1  O   UNL     1      96.598   0.140  26.127  0.00  0.00    +0.000 OA
ATOM      2  N   UNL     1      95.209  -1.325  27.267  0.00  0.00    +0.000 N 
ATOM      3  C   UNL     1      96.432  -0.880  26.789  0.00  0.00    +0.000 C 
ATOM      4  H   UNL     1      95.165  -2.212  27.762  0.00  0.00    +0.000 HD
ENDROOT
BRANCH   3  10
ATOM      5  N   UNL     1      97.522  -2.544  28.186  0.00  0.00    +0.000 NA
ATOM      6  N   UNL     1      99.152  -1.086  25.226  0.00  0.00    +0.000 N 
ATOM      7  N   UNL     1      99.760  -3.417  27.795  0.00  0.00    +0.000 NA
ATOM      8  N   UNL     1      98.471  -4.136  29.583  0.00  0.00    +0.000 N 
ATOM      9  N   UNL     1      99.003  -5.630  31.138  0.00  0.00    +0.000 NA
ATOM     10  C   UNL     1      97.602  -1.740  27.103  0.00  0.00    +0.000 A 
ATOM     11  C   UNL     1      98.764  -1.763  26.353  0.00  0.00    +0.000 A 
ATOM     12  C   UNL     1      99.816  -2.600  26.715  0.00  0.00    +0.000 A 
ATOM     13  C   UNL     1      98.592  -3.323  28.461  0.00  0.00    +0.000 A 
ATOM     14  C   UNL     1     100.856  -2.410  25.773  0.00  0.00    +0.000 A 
ATOM     15  C   UNL     1     100.419  -1.470  24.866  0.00  0.00    +0.000 A 
ATOM     16  C   UNL     1      97.388  -4.216  30.412  0.00  0.00    +0.000 A 
ATOM     17  C   UNL     1      99.415  -5.003  30.058  0.00  0.00    +0.000 A 
ATOM     18  C   UNL     1      97.740  -5.143  31.364  0.00  0.00    +0.000 A 
ATOM     19  H   UNL     1      98.592  -0.403  24.732  0.00  0.00    +0.000 HD
ENDBRANCH   3  10
BRANCH   2  20
ATOM     20  C   UNL     1      93.977  -0.614  27.023  0.00  0.00    +0.000 C 
ATOM     21  C   UNL     1      91.077  -0.219  27.418  0.00  0.00    +0.000 C 
ATOM     22  C   UNL     1      92.954  -1.530  26.347  0.00  0.00    +0.000 C 
ATOM     23  C   UNL     1      93.427  -0.022  28.324  0.00  0.00    +0.000 C 
ATOM     24  C   UNL     1      91.626  -0.811  26.121  0.00  0.00    +0.000 C 
ATOM     25  C   UNL     1      92.099   0.693  28.092  0.00  0.00    +0.000 C 
BRANCH  21  26
ATOM     26  O   UNL     1      89.904   0.537  27.140  0.00  0.00    +0.000 OA
BRANCH  26  27
ATOM     27  C   UNL     1      89.239   0.923  28.333  0.00  0.00    +0.000 C 
BRANCH  27  28
ATOM     28  C   UNL     1      88.890   2.397  28.251  0.00  0.00    +0.000 C 
BRANCH  28  29
ATOM     29  O   UNL     1      89.814   3.137  29.039  0.00  0.00    +0.000 OA
ATOM     30  C   UNL     1      89.764   4.524  28.734  0.00  0.00    +0.000 C 
ENDBRANCH  28  29
ENDBRANCH  27  28
ENDBRANCH  26  27
ENDBRANCH  21  26
ENDBRANCH   2  20
TORSDOF 6
