REMARK VINA RESULT:      -6.8      4.059      7.739
REMARK  Name = 118736856
REMARK  9 active torsions:
REMARK  status: ('A' for Active; 'I' for Inactive)
REMARK    1  A    between atoms: O_2  and  C_11
REMARK    2  A    between atoms: O_2  and  C_15
REMARK    3  A    between atoms: O_3  and  C_19
REMARK    4  A    between atoms: O_3  and  C_27
REMARK    5  A    between atoms: N_5  and  C_8
REMARK    6  A    between atoms: N_5  and  C_14
REMARK    7  A    between atoms: N_6  and  C_25
REMARK    8  A    between atoms: C_15  and  C_19
REMARK    9  A    between atoms: C_23  and  C_26
REMARK                            x       y       z     vdW  Elec       q    Type
REMARK                         _______ _______ _______ _____ _____    ______ ____
ROOT
ATOM      1  O   UNL     1      90.888  -4.300  27.663  0.00  0.00    +0.000 OA
ATOM      2  N   UNL     1      90.971  -2.082  26.952  0.00  0.00    +0.000 N 
ATOM      3  C   UNL     1      93.736  -2.157  27.649  0.00  0.00    +0.000 A 
ATOM      4  C   UNL     1      93.135  -0.921  27.096  0.00  0.00    +0.000 A 
ATOM      5  C   UNL     1      92.951  -3.231  27.812  0.00  0.00    +0.000 A 
ATOM      6  C   UNL     1      91.764  -0.905  26.757  0.00  0.00    +0.000 A 
ATOM      7  C   UNL     1      93.889   0.252  26.894  0.00  0.00    +0.000 A 
ATOM      8  C   UNL     1      91.511  -3.255  27.469  0.00  0.00    +0.000 A 
ATOM      9  C   UNL     1      91.197   0.274  26.230  0.00  0.00    +0.000 A 
ATOM     10  C   UNL     1      93.311   1.410  26.372  0.00  0.00    +0.000 A 
ATOM     11  C   UNL     1      91.965   1.420  26.039  0.00  0.00    +0.000 A 
ATOM     12  C   UNL     1      89.554  -2.050  26.596  0.00  0.00    +0.000 C 
ENDROOT
BRANCH  10  15
ATOM     13  S   UNL     1      95.010   3.248  27.483  0.00  0.00    +0.000 S 
ATOM     14  N   UNL     1      95.150   4.449  25.198  0.00  0.00    +0.000 NA
ATOM     15  C   UNL     1      94.111   2.594  26.176  0.00  0.00    +0.000 A 
ATOM     16  C   UNL     1      94.310   3.362  25.047  0.00  0.00    +0.000 A 
ATOM     17  C   UNL     1      95.577   4.488  26.440  0.00  0.00    +0.000 A 
ENDBRANCH  10  15
BRANCH   3  18
ATOM     18  N   UNL     1      95.064  -2.188  27.982  0.00  0.00    +0.000 N 
ATOM     19  H   UNL     1      95.348  -1.855  28.894  0.00  0.00    +0.000 HD
BRANCH  18  20
ATOM     20  C   UNL     1      96.069  -2.837  27.169  0.00  0.00    +0.000 C 
ATOM     21  C   UNL     1      97.065  -1.793  26.658  0.00  0.00    +0.000 C 
ATOM     22  C   UNL     1      96.767  -3.922  27.992  0.00  0.00    +0.000 C 
ATOM     23  C   UNL     1      98.903  -3.527  26.700  0.00  0.00    +0.000 C 
ATOM     24  C   UNL     1      98.204  -2.445  25.879  0.00  0.00    +0.000 C 
ATOM     25  C   UNL     1      97.908  -4.568  27.212  0.00  0.00    +0.000 C 
BRANCH  23  26
ATOM     26  O   UNL     1      99.879  -4.160  25.879  0.00  0.00    +0.000 OA
BRANCH  26  27
ATOM     27  C   UNL     1     101.135  -4.241  26.537  0.00  0.00    +0.000 C 
BRANCH  27  28
ATOM     28  C   UNL     1     102.204  -3.657  25.632  0.00  0.00    +0.000 C 
BRANCH  28  29
ATOM     29  O   UNL     1     101.588  -3.133  24.463  0.00  0.00    +0.000 OA
ATOM     30  C   UNL     1     102.030  -1.812  24.187  0.00  0.00    +0.000 C 
ENDBRANCH  28  29
ENDBRANCH  27  28
ENDBRANCH  26  27
ENDBRANCH  23  26
ENDBRANCH  18  20
ENDBRANCH   3  18
TORSDOF 7
