REMARK VINA RESULT:      -6.3      3.367      9.470
REMARK  Name = 168679856
REMARK  8 active torsions:
REMARK  status: ('A' for Active; 'I' for Inactive)
REMARK    1  A    between atoms: O_4  and  C_23
REMARK    2  A    between atoms: O_4  and  C_28
REMARK    3  A    between atoms: O_5  and  C_24
REMARK    4  A    between atoms: O_5  and  C_29
REMARK    5  A    between atoms: N_10  and  C_19
REMARK    6  A    between atoms: C_14  and  C_18
REMARK    7  A    between atoms: C_16  and  C_20
REMARK    8  A    between atoms: C_23  and  C_24
REMARK                            x       y       z     vdW  Elec       q    Type
REMARK                         _______ _______ _______ _____ _____    ______ ____
ROOT
ATOM      1  N   UNL     1      97.134  -2.151  26.624  0.00  0.00    +0.000 N 
ATOM      2  N   UNL     1      95.155  -0.952  26.877  0.00  0.00    +0.000 NA
ATOM      3  N   UNL     1      95.320  -3.253  27.576  0.00  0.00    +0.000 NA
ATOM      4  N   UNL     1      99.170  -2.941  26.218  0.00  0.00    +0.000 NA
ATOM      5  C   UNL     1      93.873  -0.956  27.295  0.00  0.00    +0.000 A 
ATOM      6  C   UNL     1      95.810  -2.117  27.045  0.00  0.00    +0.000 A 
ATOM      7  C   UNL     1      94.032  -3.186  27.972  0.00  0.00    +0.000 A 
ATOM      8  C   UNL     1      93.252  -2.053  27.856  0.00  0.00    +0.000 A 
ATOM      9  C   UNL     1      97.830  -1.119  26.059  0.00  0.00    +0.000 A 
ATOM     10  C   UNL     1      97.979  -3.223  26.699  0.00  0.00    +0.000 A 
ATOM     11  C   UNL     1      99.083  -1.630  25.817  0.00  0.00    +0.000 A 
ENDROOT
BRANCH   7  15
ATOM     12  F   UNL     1      93.111  -4.287  29.884  0.00  0.00    +0.000 F 
ATOM     13  F   UNL     1      92.306  -4.821  27.936  0.00  0.00    +0.000 F 
ATOM     14  F   UNL     1      94.285  -5.501  28.523  0.00  0.00    +0.000 F 
ATOM     15  C   UNL     1      93.448  -4.423  28.568  0.00  0.00    +0.000 C 
ENDBRANCH   7  15
BRANCH   5  18
ATOM     16  O   UNL     1      93.074   0.797  25.990  0.00  0.00    +0.000 OA
ATOM     17  N   UNL     1      92.541   0.843  28.281  0.00  0.00    +0.000 N 
ATOM     18  C   UNL     1      93.131   0.320  27.118  0.00  0.00    +0.000 C 
ATOM     19  H   UNL     1      92.683   0.317  29.140  0.00  0.00    +0.000 HD
BRANCH  17  22
ATOM     20  N   UNL     1      89.628   3.055  28.653  0.00  0.00    +0.000 NA
ATOM     21  N   UNL     1      91.629   4.393  28.561  0.00  0.00    +0.000 NA
ATOM     22  C   UNL     1      91.775   1.997  28.411  0.00  0.00    +0.000 A 
ATOM     23  C   UNL     1      90.401   1.956  28.525  0.00  0.00    +0.000 A 
ATOM     24  C   UNL     1      92.340   3.255  28.436  0.00  0.00    +0.000 A 
ATOM     25  C   UNL     1      90.297   4.223  28.664  0.00  0.00    +0.000 A 
BRANCH  25  26
ATOM     26  O   UNL     1      89.540   5.365  28.795  0.00  0.00    +0.000 OA
BRANCH  26  27
ATOM     27  C   UNL     1      90.167   6.586  28.432  0.00  0.00    +0.000 C 
BRANCH  27  28
ATOM     28  C   UNL     1      89.611   7.703  29.294  0.00  0.00    +0.000 C 
BRANCH  28  29
ATOM     29  O   UNL     1      88.729   7.147  30.261  0.00  0.00    +0.000 OA
ATOM     30  C   UNL     1      89.058   7.578  31.574  0.00  0.00    +0.000 C 
ENDBRANCH  28  29
ENDBRANCH  27  28
ENDBRANCH  26  27
ENDBRANCH  25  26
ENDBRANCH  17  22
ENDBRANCH   5  18
TORSDOF 7
