REMARK VINA RESULT:      -7.3      1.760      6.942
REMARK  Name = 441667
REMARK  12 active torsions:
REMARK  status: ('A' for Active; 'I' for Inactive)
REMARK    1  A    between atoms: O_2  and  C_16
REMARK    2  A    between atoms: O_2  and  C_18
REMARK    3  A    between atoms: O_3  and  C_12
REMARK    4  A    between atoms: O_4  and  C_13
REMARK    5  A    between atoms: O_5  and  C_14
REMARK    6  A    between atoms: O_6  and  C_17
REMARK    7  A    between atoms: O_8  and  C_24
REMARK    8  A    between atoms: O_9  and  C_29
REMARK    9  A    between atoms: O_10  and  C_30
REMARK   10  A    between atoms: O_11  and  C_32
REMARK   11  A    between atoms: C_15  and  C_17
REMARK   12  A    between atoms: C_19  and  C_23
REMARK                            x       y       z     vdW  Elec       q    Type
REMARK                         _______ _______ _______ _____ _____    ______ ____
ROOT
ATOM      1  O   UNL     1      93.129   3.418  26.864  0.00  0.00    +0.000 OA
ATOM      2  C   UNL     1      94.014   1.945  28.648  0.00  0.00    +0.000 A 
ATOM      3  C   UNL     1      93.096   2.290  27.517  0.00  0.00    +0.000 A 
ATOM      4  C   UNL     1      94.884   2.891  29.024  0.00  0.00    +0.000 A 
ATOM      5  C   UNL     1      94.924   4.180  28.343  0.00  0.00    +0.000 A 
ATOM      6  C   UNL     1      94.051   4.400  27.273  0.00  0.00    +0.000 A 
ATOM      7  C   UNL     1      95.819   5.184  28.723  0.00  0.00    +0.000 A 
ATOM      8  C   UNL     1      94.071   5.615  26.587  0.00  0.00    +0.000 A 
ATOM      9  C   UNL     1      95.837   6.400  28.036  0.00  0.00    +0.000 A 
ATOM     10  C   UNL     1      94.965   6.614  26.969  0.00  0.00    +0.000 A 
ENDROOT
BRANCH   3  11
ATOM     11  C   UNL     1      92.108   1.266  27.101  0.00  0.00    +0.000 A 
ATOM     12  C   UNL     1      90.821   1.300  27.624  0.00  0.00    +0.000 A 
ATOM     13  C   UNL     1      92.480   0.281  26.193  0.00  0.00    +0.000 A 
ATOM     14  C   UNL     1      89.892   0.336  27.232  0.00  0.00    +0.000 A 
ATOM     15  C   UNL     1      91.550  -0.682  25.801  0.00  0.00    +0.000 A 
ATOM     16  C   UNL     1      90.257  -0.655  26.321  0.00  0.00    +0.000 A 
BRANCH  14  17
ATOM     17  O   UNL     1      88.631   0.374  27.746  0.00  0.00    +0.000 OA
ATOM     18  H   UNL     1      88.635  -0.096  28.600  0.00  0.00    +0.000 HD
ENDBRANCH  14  17
BRANCH  16  19
ATOM     19  O   UNL     1      89.359  -1.602  25.931  0.00  0.00    +0.000 OA
ATOM     20  H   UNL     1      88.586  -1.164  25.536  0.00  0.00    +0.000 HD
ENDBRANCH  16  19
ENDBRANCH   3  11
BRANCH   7  21
ATOM     21  O   UNL     1      96.691   5.012  29.758  0.00  0.00    +0.000 OA
ATOM     22  H   UNL     1      96.794   4.069  29.960  0.00  0.00    +0.000 HD
ENDBRANCH   7  21
BRANCH  10  23
ATOM     23  O   UNL     1      94.986   7.800  26.301  0.00  0.00    +0.000 OA
ATOM     24  H   UNL     1      95.911   8.063  26.155  0.00  0.00    +0.000 HD
ENDBRANCH  10  23
BRANCH   2  25
ATOM     25  O   UNL     1      93.979   0.692  29.216  0.00  0.00    +0.000 OA
BRANCH  25  31
ATOM     26  O   UNL     1      95.771   0.106  27.842  0.00  0.00    +0.000 OA
ATOM     27  C   UNL     1      96.376  -2.186  29.464  0.00  0.00    +0.000 C 
ATOM     28  C   UNL     1      96.982  -1.981  28.076  0.00  0.00    +0.000 C 
ATOM     29  C   UNL     1      95.081  -1.390  29.625  0.00  0.00    +0.000 C 
ATOM     30  C   UNL     1      97.064  -0.492  27.733  0.00  0.00    +0.000 C 
ATOM     31  C   UNL     1      95.257   0.058  29.171  0.00  0.00    +0.000 C 
BRANCH  27  32
ATOM     32  O   UNL     1      96.103  -3.578  29.627  0.00  0.00    +0.000 OA
ATOM     33  H   UNL     1      96.075  -3.772  30.580  0.00  0.00    +0.000 HD
ENDBRANCH  27  32
BRANCH  28  34
ATOM     34  O   UNL     1      98.291  -2.545  28.044  0.00  0.00    +0.000 OA
ATOM     35  H   UNL     1      98.874  -1.918  27.586  0.00  0.00    +0.000 HD
ENDBRANCH  28  34
BRANCH  29  36
ATOM     36  O   UNL     1      94.697  -1.383  31.001  0.00  0.00    +0.000 OA
ATOM     37  H   UNL     1      94.218  -2.212  31.173  0.00  0.00    +0.000 HD
ENDBRANCH  29  36
BRANCH  30  38
ATOM     38  C   UNL     1      97.557  -0.267  26.307  0.00  0.00    +0.000 C 
BRANCH  38  39
ATOM     39  O   UNL     1      97.329  -1.448  25.560  0.00  0.00    +0.000 OA
ATOM     40  H   UNL     1      98.185  -1.899  25.452  0.00  0.00    +0.000 HD
ENDBRANCH  38  39
ENDBRANCH  30  38
ENDBRANCH  25  31
ENDBRANCH   2  25
TORSDOF 12
