MODEL 1
REMARK VINA RESULT:      -7.3      0.000      0.000
REMARK  Name = 5280443
REMARK  4 active torsions:
REMARK  status: ('A' for Active; 'I' for Inactive)
REMARK    1  A    between atoms: O_2  and  C_12
REMARK    2  A    between atoms: O_4  and  C_14
REMARK    3  A    between atoms: O_5  and  C_20
REMARK    4  A    between atoms: C_8  and  C_9
REMARK                            x       y       z     vdW  Elec       q    Type
REMARK                         _______ _______ _______ _____ _____    ______ ____
ROOT
ATOM      1  O   UNL     1      99.267   2.415  28.224  0.00  0.00    +0.000 OA
ATOM      2  O   UNL     1     102.204   4.063  30.517  0.00  0.00    +0.000 OA
ATOM      3  C   UNL     1      99.907   3.983  29.965  0.00  0.00    +0.000 A 
ATOM      4  C   UNL     1      98.953   3.378  29.150  0.00  0.00    +0.000 A 
ATOM      5  C   UNL     1     100.595   2.037  28.089  0.00  0.00    +0.000 A 
ATOM      6  C   UNL     1     101.315   3.576  29.833  0.00  0.00    +0.000 A 
ATOM      7  C   UNL     1     101.602   2.540  28.820  0.00  0.00    +0.000 A 
ATOM      8  C   UNL     1      99.529   4.956  30.892  0.00  0.00    +0.000 A 
ATOM      9  C   UNL     1      97.611   3.743  29.258  0.00  0.00    +0.000 A 
ATOM     10  C   UNL     1      97.229   4.715  30.182  0.00  0.00    +0.000 A 
ATOM     11  C   UNL     1      98.187   5.322  30.998  0.00  0.00    +0.000 A 
ENDROOT
BRANCH   5  12
ATOM     12  C   UNL     1     100.820   0.993  27.070  0.00  0.00    +0.000 A 
ATOM     13  C   UNL     1     100.113  -0.212  27.132  0.00  0.00    +0.000 A 
ATOM     14  C   UNL     1     101.738   1.205  26.039  0.00  0.00    +0.000 A 
ATOM     15  C   UNL     1     100.325  -1.198  26.168  0.00  0.00    +0.000 A 
ATOM     16  C   UNL     1     101.949   0.218  25.076  0.00  0.00    +0.000 A 
ATOM     17  C   UNL     1     101.244  -0.983  25.140  0.00  0.00    +0.000 A 
BRANCH  17  18
ATOM     18  O   UNL     1     101.450  -1.945  24.200  0.00  0.00    +0.000 OA
ATOM     19  H   UNL     1     101.266  -1.570  23.321  0.00  0.00    +0.000 HD
ENDBRANCH  17  18
ENDBRANCH   5  12
BRANCH   8  20
ATOM     20  O   UNL     1     100.424   5.577  31.712  0.00  0.00    +0.000 OA
ATOM     21  H   UNL     1      99.962   6.119  32.370  0.00  0.00    +0.000 HD
ENDBRANCH   8  20
BRANCH  10  22
ATOM     22  O   UNL     1      95.920   5.075  30.290  0.00  0.00    +0.000 OA
ATOM     23  H   UNL     1      95.868   5.962  30.686  0.00  0.00    +0.000 HD
ENDBRANCH  10  22
TORSDOF 4
ENDMDL
MODEL 2
REMARK VINA RESULT:      -7.2      0.053      1.082
REMARK  Name = 5280443
REMARK  4 active torsions:
REMARK  status: ('A' for Active; 'I' for Inactive)
REMARK    1  A    between atoms: O_2  and  C_12
REMARK    2  A    between atoms: O_4  and  C_14
REMARK    3  A    between atoms: O_5  and  C_20
REMARK    4  A    between atoms: C_8  and  C_9
REMARK                            x       y       z     vdW  Elec       q    Type
REMARK                         _______ _______ _______ _____ _____    ______ ____
ROOT
ATOM      1  O   UNL     1      99.262   2.422  28.276  0.00  0.00    +0.000 OA
ATOM      2  O   UNL     1     102.204   4.057  30.571  0.00  0.00    +0.000 OA
ATOM      3  C   UNL     1      99.907   3.984  30.021  0.00  0.00    +0.000 A 
ATOM      4  C   UNL     1      98.951   3.384  29.205  0.00  0.00    +0.000 A 
ATOM      5  C   UNL     1     100.588   2.040  28.140  0.00  0.00    +0.000 A 
ATOM      6  C   UNL     1     101.314   3.574  29.887  0.00  0.00    +0.000 A 
ATOM      7  C   UNL     1     101.597   2.539  28.872  0.00  0.00    +0.000 A 
ATOM      8  C   UNL     1      99.532   4.957  30.950  0.00  0.00    +0.000 A 
ATOM      9  C   UNL     1      97.610   3.753  29.313  0.00  0.00    +0.000 A 
ATOM     10  C   UNL     1      97.231   4.724  30.240  0.00  0.00    +0.000 A 
ATOM     11  C   UNL     1      98.191   5.326  31.057  0.00  0.00    +0.000 A 
ENDROOT
BRANCH   5  12
ATOM     12  C   UNL     1     100.809   0.998  27.119  0.00  0.00    +0.000 A 
ATOM     13  C   UNL     1     101.728   1.211  26.087  0.00  0.00    +0.000 A 
ATOM     14  C   UNL     1     100.104  -0.206  27.179  0.00  0.00    +0.000 A 
ATOM     15  C   UNL     1     101.938   0.226  25.122  0.00  0.00    +0.000 A 
ATOM     16  C   UNL     1     100.314  -1.190  26.214  0.00  0.00    +0.000 A 
ATOM     17  C   UNL     1     101.231  -0.975  25.185  0.00  0.00    +0.000 A 
BRANCH  17  18
ATOM     18  O   UNL     1     101.437  -1.936  24.244  0.00  0.00    +0.000 OA
ATOM     19  H   UNL     1     101.816  -2.722  24.675  0.00  0.00    +0.000 HD
ENDBRANCH  17  18
ENDBRANCH   5  12
BRANCH   8  20
ATOM     20  O   UNL     1     100.429   5.573  31.770  0.00  0.00    +0.000 OA
ATOM     21  H   UNL     1     101.176   5.920  31.258  0.00  0.00    +0.000 HD
ENDBRANCH   8  20
BRANCH  10  22
ATOM     22  O   UNL     1      95.923   5.087  30.349  0.00  0.00    +0.000 OA
ATOM     23  H   UNL     1      95.473   4.904  29.506  0.00  0.00    +0.000 HD
ENDBRANCH  10  22
TORSDOF 4
ENDMDL
MODEL 3
REMARK VINA RESULT:      -5.9      1.930      2.318
REMARK  Name = 5280443
REMARK  4 active torsions:
REMARK  status: ('A' for Active; 'I' for Inactive)
REMARK    1  A    between atoms: O_2  and  C_12
REMARK    2  A    between atoms: O_4  and  C_14
REMARK    3  A    between atoms: O_5  and  C_20
REMARK    4  A    between atoms: C_8  and  C_9
REMARK                            x       y       z     vdW  Elec       q    Type
REMARK                         _______ _______ _______ _____ _____    ______ ____
ROOT
ATOM      1  O   UNL     1     100.036   2.561  29.908  0.00  0.00    +0.000 OA
ATOM      2  O   UNL     1     100.469   6.296  28.340  0.00  0.00    +0.000 OA
ATOM      3  C   UNL     1     100.093   4.964  30.256  0.00  0.00    +0.000 A 
ATOM      4  C   UNL     1      99.956   3.660  30.726  0.00  0.00    +0.000 A 
ATOM      5  C   UNL     1     100.255   2.761  28.554  0.00  0.00    +0.000 A 
ATOM      6  C   UNL     1     100.336   5.180  28.821  0.00  0.00    +0.000 A 
ATOM      7  C   UNL     1     100.411   3.966  27.983  0.00  0.00    +0.000 A 
ATOM      8  C   UNL     1     100.004   6.045  31.135  0.00  0.00    +0.000 A 
ATOM      9  C   UNL     1      99.727   3.428  32.082  0.00  0.00    +0.000 A 
ATOM     10  C   UNL     1      99.637   4.505  32.965  0.00  0.00    +0.000 A 
ATOM     11  C   UNL     1      99.774   5.812  32.492  0.00  0.00    +0.000 A 
ENDROOT
BRANCH   5  12
ATOM     12  C   UNL     1     100.329   1.513  27.768  0.00  0.00    +0.000 A 
ATOM     13  C   UNL     1      99.434   0.469  28.023  0.00  0.00    +0.000 A 
ATOM     14  C   UNL     1     101.291   1.370  26.767  0.00  0.00    +0.000 A 
ATOM     15  C   UNL     1      99.504  -0.709  27.280  0.00  0.00    +0.000 A 
ATOM     16  C   UNL     1     101.360   0.191  26.025  0.00  0.00    +0.000 A 
ATOM     17  C   UNL     1     100.467  -0.849  26.281  0.00  0.00    +0.000 A 
BRANCH  17  18
ATOM     18  O   UNL     1     100.534  -1.998  25.556  0.00  0.00    +0.000 OA
ATOM     19  H   UNL     1     100.487  -1.777  24.610  0.00  0.00    +0.000 HD
ENDBRANCH  17  18
ENDBRANCH   5  12
BRANCH   8  20
ATOM     20  O   UNL     1     100.132   7.338  30.725  0.00  0.00    +0.000 OA
ATOM     21  H   UNL     1      99.479   7.543  30.038  0.00  0.00    +0.000 HD
ENDBRANCH   8  20
BRANCH  10  22
ATOM     22  O   UNL     1      99.414   4.282  34.289  0.00  0.00    +0.000 OA
ATOM     23  H   UNL     1      98.560   3.828  34.394  0.00  0.00    +0.000 HD
ENDBRANCH  10  22
TORSDOF 4
ENDMDL
MODEL 4
REMARK VINA RESULT:      -5.6     12.409     14.451
REMARK  Name = 5280443
REMARK  4 active torsions:
REMARK  status: ('A' for Active; 'I' for Inactive)
REMARK    1  A    between atoms: O_2  and  C_12
REMARK    2  A    between atoms: O_4  and  C_14
REMARK    3  A    between atoms: O_5  and  C_20
REMARK    4  A    between atoms: C_8  and  C_9
REMARK                            x       y       z     vdW  Elec       q    Type
REMARK                         _______ _______ _______ _____ _____    ______ ____
ROOT
ATOM      1  O   UNL     1      88.968  -1.823  22.454  0.00  0.00    +0.000 OA
ATOM      2  O   UNL     1      90.415  -3.800  25.709  0.00  0.00    +0.000 OA
ATOM      3  C   UNL     1      90.146  -3.744  23.361  0.00  0.00    +0.000 A 
ATOM      4  C   UNL     1      89.628  -3.016  22.293  0.00  0.00    +0.000 A 
ATOM      5  C   UNL     1      88.804  -1.328  23.739  0.00  0.00    +0.000 A 
ATOM      6  C   UNL     1      89.984  -3.216  24.725  0.00  0.00    +0.000 A 
ATOM      7  C   UNL     1      89.264  -1.932  24.846  0.00  0.00    +0.000 A 
ATOM      8  C   UNL     1      90.810  -4.952  23.137  0.00  0.00    +0.000 A 
ATOM      9  C   UNL     1      89.770  -3.492  20.990  0.00  0.00    +0.000 A 
ATOM     10  C   UNL     1      90.432  -4.699  20.761  0.00  0.00    +0.000 A 
ATOM     11  C   UNL     1      90.951  -5.428  21.834  0.00  0.00    +0.000 A 
ENDROOT
BRANCH   5  12
ATOM     12  C   UNL     1      88.087  -0.039  23.797  0.00  0.00    +0.000 A 
ATOM     13  C   UNL     1      87.494   0.487  22.646  0.00  0.00    +0.000 A 
ATOM     14  C   UNL     1      87.996   0.660  25.003  0.00  0.00    +0.000 A 
ATOM     15  C   UNL     1      86.815   1.704  22.701  0.00  0.00    +0.000 A 
ATOM     16  C   UNL     1      87.317   1.877  25.057  0.00  0.00    +0.000 A 
ATOM     17  C   UNL     1      86.727   2.400  23.907  0.00  0.00    +0.000 A 
BRANCH  17  18
ATOM     18  O   UNL     1      86.065   3.587  23.961  0.00  0.00    +0.000 OA
ATOM     19  H   UNL     1      85.530   3.612  24.774  0.00  0.00    +0.000 HD
ENDBRANCH  17  18
ENDBRANCH   5  12
BRANCH   8  20
ATOM     20  O   UNL     1      91.335  -5.700  24.148  0.00  0.00    +0.000 OA
ATOM     21  H   UNL     1      91.895  -6.406  23.792  0.00  0.00    +0.000 HD
ENDBRANCH   8  20
BRANCH  10  22
ATOM     22  O   UNL     1      90.573  -5.167  19.490  0.00  0.00    +0.000 OA
ATOM     23  H   UNL     1      91.305  -4.693  19.058  0.00  0.00    +0.000 HD
ENDBRANCH  10  22
TORSDOF 4
ENDMDL
MODEL 5
REMARK VINA RESULT:      -5.5     12.483     13.816
REMARK  Name = 5280443
REMARK  4 active torsions:
REMARK  status: ('A' for Active; 'I' for Inactive)
REMARK    1  A    between atoms: O_2  and  C_12
REMARK    2  A    between atoms: O_4  and  C_14
REMARK    3  A    between atoms: O_5  and  C_20
REMARK    4  A    between atoms: C_8  and  C_9
REMARK                            x       y       z     vdW  Elec       q    Type
REMARK                         _______ _______ _______ _____ _____    ______ ____
ROOT
ATOM      1  O   UNL     1      88.484  -1.807  25.677  0.00  0.00    +0.000 OA
ATOM      2  O   UNL     1      90.952  -3.783  23.108  0.00  0.00    +0.000 OA
ATOM      3  C   UNL     1      89.889  -3.734  25.218  0.00  0.00    +0.000 A 
ATOM      4  C   UNL     1      89.037  -3.007  26.046  0.00  0.00    +0.000 A 
ATOM      5  C   UNL     1      88.796  -1.293  24.428  0.00  0.00    +0.000 A 
ATOM      6  C   UNL     1      90.214  -3.198  23.887  0.00  0.00    +0.000 A 
ATOM      7  C   UNL     1      89.596  -1.902  23.538  0.00  0.00    +0.000 A 
ATOM      8  C   UNL     1      90.421  -4.952  25.646  0.00  0.00    +0.000 A 
ATOM      9  C   UNL     1      88.711  -3.495  27.312  0.00  0.00    +0.000 A 
ATOM     10  C   UNL     1      89.241  -4.711  27.744  0.00  0.00    +0.000 A 
ATOM     11  C   UNL     1      90.096  -5.438  26.913  0.00  0.00    +0.000 A 
ENDROOT
BRANCH   5  12
ATOM     12  C   UNL     1      88.144  -0.002  24.131  0.00  0.00    +0.000 A 
ATOM     13  C   UNL     1      87.824   0.336  22.813  0.00  0.00    +0.000 A 
ATOM     14  C   UNL     1      87.843   0.887  25.165  0.00  0.00    +0.000 A 
ATOM     15  C   UNL     1      87.207   1.555  22.533  0.00  0.00    +0.000 A 
ATOM     16  C   UNL     1      87.227   2.106  24.884  0.00  0.00    +0.000 A 
ATOM     17  C   UNL     1      86.909   2.441  23.568  0.00  0.00    +0.000 A 
BRANCH  17  18
ATOM     18  O   UNL     1      86.307   3.630  23.295  0.00  0.00    +0.000 OA
ATOM     19  H   UNL     1      85.348   3.486  23.216  0.00  0.00    +0.000 HD
ENDBRANCH  17  18
ENDBRANCH   5  12
BRANCH   8  20
ATOM     20  O   UNL     1      91.258  -5.700  24.873  0.00  0.00    +0.000 OA
ATOM     21  H   UNL     1      90.753  -6.331  24.338  0.00  0.00    +0.000 HD
ENDBRANCH   8  20
BRANCH  10  22
ATOM     22  O   UNL     1      88.925  -5.190  28.979  0.00  0.00    +0.000 OA
ATOM     23  H   UNL     1      89.503  -5.946  29.182  0.00  0.00    +0.000 HD
ENDBRANCH  10  22
TORSDOF 4
ENDMDL
MODEL 6
REMARK VINA RESULT:      -5.4     14.035     16.100
REMARK  Name = 5280443
REMARK  4 active torsions:
REMARK  status: ('A' for Active; 'I' for Inactive)
REMARK    1  A    between atoms: O_2  and  C_12
REMARK    2  A    between atoms: O_4  and  C_14
REMARK    3  A    between atoms: O_5  and  C_20
REMARK    4  A    between atoms: C_8  and  C_9
REMARK                            x       y       z     vdW  Elec       q    Type
REMARK                         _______ _______ _______ _____ _____    ______ ____
ROOT
ATOM      1  O   UNL     1      85.020   1.398  23.025  0.00  0.00    +0.000 OA
ATOM      2  O   UNL     1      84.265   4.832  25.083  0.00  0.00    +0.000 OA
ATOM      3  C   UNL     1      83.677   3.404  23.295  0.00  0.00    +0.000 A 
ATOM      4  C   UNL     1      83.989   2.216  22.637  0.00  0.00    +0.000 A 
ATOM      5  C   UNL     1      85.789   1.777  24.115  0.00  0.00    +0.000 A 
ATOM      6  C   UNL     1      84.484   3.805  24.458  0.00  0.00    +0.000 A 
ATOM      7  C   UNL     1      85.583   2.893  24.834  0.00  0.00    +0.000 A 
ATOM      8  C   UNL     1      82.614   4.196  22.855  0.00  0.00    +0.000 A 
ATOM      9  C   UNL     1      83.238   1.812  21.533  0.00  0.00    +0.000 A 
ATOM     10  C   UNL     1      82.176   2.600  21.090  0.00  0.00    +0.000 A 
ATOM     11  C   UNL     1      81.865   3.791  21.750  0.00  0.00    +0.000 A 
ENDROOT
BRANCH   5  12
ATOM     12  C   UNL     1      86.866   0.825  24.450  0.00  0.00    +0.000 A 
ATOM     13  C   UNL     1      86.790  -0.501  24.014  0.00  0.00    +0.000 A 
ATOM     14  C   UNL     1      87.965   1.244  25.202  0.00  0.00    +0.000 A 
ATOM     15  C   UNL     1      87.808  -1.401  24.329  0.00  0.00    +0.000 A 
ATOM     16  C   UNL     1      88.983   0.343  25.517  0.00  0.00    +0.000 A 
ATOM     17  C   UNL     1      88.904  -0.980  25.081  0.00  0.00    +0.000 A 
BRANCH  17  18
ATOM     18  O   UNL     1      89.897  -1.857  25.388  0.00  0.00    +0.000 OA
ATOM     19  H   UNL     1      89.818  -2.637  24.811  0.00  0.00    +0.000 HD
ENDBRANCH  17  18
ENDBRANCH   5  12
BRANCH   8  20
ATOM     20  O   UNL     1      82.270   5.365  23.464  0.00  0.00    +0.000 OA
ATOM     21  H   UNL     1      82.773   5.482  24.285  0.00  0.00    +0.000 HD
ENDBRANCH   8  20
BRANCH  10  22
ATOM     22  O   UNL     1      81.441   2.209  20.013  0.00  0.00    +0.000 OA
ATOM     23  H   UNL     1      81.965   1.583  19.484  0.00  0.00    +0.000 HD
ENDBRANCH  10  22
TORSDOF 4
ENDMDL
MODEL 7
REMARK VINA RESULT:      -5.4     12.874     14.692
REMARK  Name = 5280443
REMARK  4 active torsions:
REMARK  status: ('A' for Active; 'I' for Inactive)
REMARK    1  A    between atoms: O_2  and  C_12
REMARK    2  A    between atoms: O_4  and  C_14
REMARK    3  A    between atoms: O_5  and  C_20
REMARK    4  A    between atoms: C_8  and  C_9
REMARK                            x       y       z     vdW  Elec       q    Type
REMARK                         _______ _______ _______ _____ _____    ______ ____
ROOT
ATOM      1  O   UNL     1      86.907   0.856  24.396  0.00  0.00    +0.000 OA
ATOM      2  O   UNL     1      84.724   0.775  20.957  0.00  0.00    +0.000 OA
ATOM      3  C   UNL     1      85.168   1.844  23.017  0.00  0.00    +0.000 A 
ATOM      4  C   UNL     1      85.950   1.813  24.170  0.00  0.00    +0.000 A 
ATOM      5  C   UNL     1      87.096  -0.128  23.437  0.00  0.00    +0.000 A 
ATOM      6  C   UNL     1      85.373   0.808  21.993  0.00  0.00    +0.000 A 
ATOM      7  C   UNL     1      86.412  -0.201  22.284  0.00  0.00    +0.000 A 
ATOM      8  C   UNL     1      84.209   2.843  22.841  0.00  0.00    +0.000 A 
ATOM      9  C   UNL     1      85.778   2.785  25.156  0.00  0.00    +0.000 A 
ATOM     10  C   UNL     1      84.821   3.785  24.984  0.00  0.00    +0.000 A 
ATOM     11  C   UNL     1      84.037   3.814  23.828  0.00  0.00    +0.000 A 
ENDROOT
BRANCH   5  12
ATOM     12  C   UNL     1      88.152  -1.102  23.777  0.00  0.00    +0.000 A 
ATOM     13  C   UNL     1      88.583  -1.235  25.100  0.00  0.00    +0.000 A 
ATOM     14  C   UNL     1      88.723  -1.895  22.780  0.00  0.00    +0.000 A 
ATOM     15  C   UNL     1      89.580  -2.157  25.422  0.00  0.00    +0.000 A 
ATOM     16  C   UNL     1      89.720  -2.816  23.102  0.00  0.00    +0.000 A 
ATOM     17  C   UNL     1      90.149  -2.946  24.423  0.00  0.00    +0.000 A 
BRANCH  17  18
ATOM     18  O   UNL     1      91.121  -3.845  24.737  0.00  0.00    +0.000 OA
ATOM     19  H   UNL     1      90.775  -4.462  25.406  0.00  0.00    +0.000 HD
ENDBRANCH  17  18
ENDBRANCH   5  12
BRANCH   8  20
ATOM     20  O   UNL     1      83.421   2.917  21.732  0.00  0.00    +0.000 OA
ATOM     21  H   UNL     1      82.586   3.366  21.938  0.00  0.00    +0.000 HD
ENDBRANCH   8  20
BRANCH  10  22
ATOM     22  O   UNL     1      84.650   4.735  25.944  0.00  0.00    +0.000 OA
ATOM     23  H   UNL     1      85.353   5.403  25.857  0.00  0.00    +0.000 HD
ENDBRANCH  10  22
TORSDOF 4
ENDMDL
MODEL 8
REMARK VINA RESULT:      -5.4     12.564     14.357
REMARK  Name = 5280443
REMARK  4 active torsions:
REMARK  status: ('A' for Active; 'I' for Inactive)
REMARK    1  A    between atoms: O_2  and  C_12
REMARK    2  A    between atoms: O_4  and  C_14
REMARK    3  A    between atoms: O_5  and  C_20
REMARK    4  A    between atoms: C_8  and  C_9
REMARK                            x       y       z     vdW  Elec       q    Type
REMARK                         _______ _______ _______ _____ _____    ______ ____
ROOT
ATOM      1  O   UNL     1      87.248   0.407  24.535  0.00  0.00    +0.000 OA
ATOM      2  O   UNL     1      85.352   0.745  20.945  0.00  0.00    +0.000 OA
ATOM      3  C   UNL     1      85.666   1.596  23.127  0.00  0.00    +0.000 A 
ATOM      4  C   UNL     1      86.349   1.423  24.329  0.00  0.00    +0.000 A 
ATOM      5  C   UNL     1      87.478  -0.491  23.504  0.00  0.00    +0.000 A 
ATOM      6  C   UNL     1      85.914   0.651  22.027  0.00  0.00    +0.000 A 
ATOM      7  C   UNL     1      86.888  -0.426  22.300  0.00  0.00    +0.000 A 
ATOM      8  C   UNL     1      84.763   2.650  22.974  0.00  0.00    +0.000 A 
ATOM      9  C   UNL     1      86.134   2.306  25.387  0.00  0.00    +0.000 A 
ATOM     10  C   UNL     1      85.232   3.360  25.239  0.00  0.00    +0.000 A 
ATOM     11  C   UNL     1      84.547   3.531  24.033  0.00  0.00    +0.000 A 
ENDROOT
BRANCH   5  12
ATOM     12  C   UNL     1      88.464  -1.539  23.830  0.00  0.00    +0.000 A 
ATOM     13  C   UNL     1      89.079  -2.267  22.807  0.00  0.00    +0.000 A 
ATOM     14  C   UNL     1      88.789  -1.808  25.162  0.00  0.00    +0.000 A 
ATOM     15  C   UNL     1      90.013  -3.257  23.115  0.00  0.00    +0.000 A 
ATOM     16  C   UNL     1      89.722  -2.798  25.469  0.00  0.00    +0.000 A 
ATOM     17  C   UNL     1      90.334  -3.523  24.446  0.00  0.00    +0.000 A 
BRANCH  17  18
ATOM     18  O   UNL     1      91.245  -4.488  24.747  0.00  0.00    +0.000 OA
ATOM     19  H   UNL     1      92.040  -4.350  24.204  0.00  0.00    +0.000 HD
ENDBRANCH  17  18
ENDBRANCH   5  12
BRANCH   8  20
ATOM     20  O   UNL     1      84.071   2.862  21.819  0.00  0.00    +0.000 OA
ATOM     21  H   UNL     1      84.196   2.120  21.207  0.00  0.00    +0.000 HD
ENDBRANCH   8  20
BRANCH  10  22
ATOM     22  O   UNL     1      85.019   4.224  26.269  0.00  0.00    +0.000 OA
ATOM     23  H   UNL     1      85.791   4.809  26.355  0.00  0.00    +0.000 HD
ENDBRANCH  10  22
TORSDOF 4
ENDMDL
MODEL 9
REMARK VINA RESULT:      -5.3     15.242     17.504
REMARK  Name = 5280443
REMARK  4 active torsions:
REMARK  status: ('A' for Active; 'I' for Inactive)
REMARK    1  A    between atoms: O_2  and  C_12
REMARK    2  A    between atoms: O_4  and  C_14
REMARK    3  A    between atoms: O_5  and  C_20
REMARK    4  A    between atoms: C_8  and  C_9
REMARK                            x       y       z     vdW  Elec       q    Type
REMARK                         _______ _______ _______ _____ _____    ______ ____
ROOT
ATOM      1  O   UNL     1      85.517   2.296  20.701  0.00  0.00    +0.000 OA
ATOM      2  O   UNL     1      81.929   3.857  21.833  0.00  0.00    +0.000 OA
ATOM      3  C   UNL     1      83.346   3.180  20.067  0.00  0.00    +0.000 A 
ATOM      4  C   UNL     1      84.590   2.641  19.750  0.00  0.00    +0.000 A 
ATOM      5  C   UNL     1      85.202   2.503  22.035  0.00  0.00    +0.000 A 
ATOM      6  C   UNL     1      83.003   3.391  21.482  0.00  0.00    +0.000 A 
ATOM      7  C   UNL     1      84.035   3.007  22.467  0.00  0.00    +0.000 A 
ATOM      8  C   UNL     1      82.441   3.511  19.056  0.00  0.00    +0.000 A 
ATOM      9  C   UNL     1      84.939   2.428  18.416  0.00  0.00    +0.000 A 
ATOM     10  C   UNL     1      84.038   2.758  17.402  0.00  0.00    +0.000 A 
ATOM     11  C   UNL     1      82.791   3.299  17.722  0.00  0.00    +0.000 A 
ENDROOT
BRANCH   5  12
ATOM     12  C   UNL     1      86.266   2.093  22.973  0.00  0.00    +0.000 A 
ATOM     13  C   UNL     1      86.084   2.245  24.351  0.00  0.00    +0.000 A 
ATOM     14  C   UNL     1      87.458   1.551  22.489  0.00  0.00    +0.000 A 
ATOM     15  C   UNL     1      87.089   1.857  25.237  0.00  0.00    +0.000 A 
ATOM     16  C   UNL     1      88.463   1.164  23.375  0.00  0.00    +0.000 A 
ATOM     17  C   UNL     1      88.279   1.317  24.749  0.00  0.00    +0.000 A 
BRANCH  17  18
ATOM     18  O   UNL     1      89.258   0.938  25.614  0.00  0.00    +0.000 OA
ATOM     19  H   UNL     1      89.470   0.001  25.458  0.00  0.00    +0.000 HD
ENDBRANCH  17  18
ENDBRANCH   5  12
BRANCH   8  20
ATOM     20  O   UNL     1      81.212   4.040  19.314  0.00  0.00    +0.000 OA
ATOM     21  H   UNL     1      80.909   3.778  20.198  0.00  0.00    +0.000 HD
ENDBRANCH   8  20
BRANCH  10  22
ATOM     22  O   UNL     1      84.375   2.552  16.099  0.00  0.00    +0.000 OA
ATOM     23  H   UNL     1      84.960   3.272  15.807  0.00  0.00    +0.000 HD
ENDBRANCH  10  22
TORSDOF 4
ENDMDL
