MODEL 1
REMARK VINA RESULT:      -5.0      0.000      0.000
REMARK  Name = 155598690
REMARK  7 active torsions:
REMARK  status: ('A' for Active; 'I' for Inactive)
REMARK    1  A    between atoms: O_1  and  C_11
REMARK    2  A    between atoms: O_1  and  C_16
REMARK    3  A    between atoms: O_3  and  C_19
REMARK    4  A    between atoms: O_3  and  C_25
REMARK    5  A    between atoms: N_4  and  C_10
REMARK    6  A    between atoms: C_16  and  C_19
REMARK    7  A    between atoms: C_17  and  C_18
REMARK                            x       y       z     vdW  Elec       q    Type
REMARK                         _______ _______ _______ _____ _____    ______ ____
ROOT
ATOM      1  O   UNL     1      89.045  -0.993  24.689  0.00  0.00    +0.000 OA
ATOM      2  N   UNL     1      87.592  -1.170  22.892  0.00  0.00    +0.000 N 
ATOM      3  C   UNL     1      88.663  -1.570  23.675  0.00  0.00    +0.000 C 
ATOM      4  H   UNL     1      87.385  -1.684  22.039  0.00  0.00    +0.000 HD
ENDROOT
BRANCH   3  10
ATOM      5  N   UNL     1      89.516  -2.966  21.878  0.00  0.00    +0.000 NA
ATOM      6  N   UNL     1      89.994  -3.817  25.426  0.00  0.00    +0.000 N 
ATOM      7  N   UNL     1      90.755  -5.034  22.210  0.00  0.00    +0.000 NA
ATOM      8  N   UNL     1      90.288  -4.226  20.087  0.00  0.00    +0.000 N 
ATOM      9  N   UNL     1      90.840  -5.122  18.132  0.00  0.00    +0.000 NA
ATOM     10  C   UNL     1      89.391  -2.778  23.209  0.00  0.00    +0.000 A 
ATOM     11  C   UNL     1      89.947  -3.718  24.059  0.00  0.00    +0.000 A 
ATOM     12  C   UNL     1      90.615  -4.823  23.542  0.00  0.00    +0.000 A 
ATOM     13  C   UNL     1      90.181  -4.068  21.465  0.00  0.00    +0.000 A 
ATOM     14  C   UNL     1      91.070  -5.599  24.635  0.00  0.00    +0.000 A 
ATOM     15  C   UNL     1      90.673  -4.954  25.786  0.00  0.00    +0.000 A 
ATOM     16  C   UNL     1      89.790  -3.382  19.135  0.00  0.00    +0.000 A 
ATOM     17  C   UNL     1      90.910  -5.255  19.438  0.00  0.00    +0.000 A 
ATOM     18  C   UNL     1      90.143  -3.956  17.937  0.00  0.00    +0.000 A 
ATOM     19  H   UNL     1      89.589  -3.154  26.074  0.00  0.00    +0.000 HD
ENDBRANCH   3  10
BRANCH   2  20
ATOM     20  C   UNL     1      86.801  -0.002  23.198  0.00  0.00    +0.000 C 
ATOM     21  C   UNL     1      84.767   2.021  22.498  0.00  0.00    +0.000 C 
ATOM     22  C   UNL     1      87.116   1.131  22.217  0.00  0.00    +0.000 C 
ATOM     23  C   UNL     1      85.309  -0.345  23.201  0.00  0.00    +0.000 C 
ATOM     24  C   UNL     1      86.256   2.361  22.494  0.00  0.00    +0.000 C 
ATOM     25  C   UNL     1      84.456   0.891  23.475  0.00  0.00    +0.000 C 
BRANCH  21  26
ATOM     26  O   UNL     1      84.015   3.169  22.874  0.00  0.00    +0.000 OA
BRANCH  26  27
ATOM     27  C   UNL     1      83.477   3.034  24.181  0.00  0.00    +0.000 C 
BRANCH  27  28
ATOM     28  C   UNL     1      83.330   4.410  24.801  0.00  0.00    +0.000 C 
BRANCH  28  29
ATOM     29  O   UNL     1      84.549   4.761  25.444  0.00  0.00    +0.000 OA
ATOM     30  C   UNL     1      85.049   3.690  26.232  0.00  0.00    +0.000 C 
ENDBRANCH  28  29
ENDBRANCH  27  28
ENDBRANCH  26  27
ENDBRANCH  21  26
ENDBRANCH   2  20
TORSDOF 6
ENDMDL
MODEL 2
REMARK VINA RESULT:      -4.9      3.681      8.700
REMARK  Name = 155598690
REMARK  7 active torsions:
REMARK  status: ('A' for Active; 'I' for Inactive)
REMARK    1  A    between atoms: O_1  and  C_11
REMARK    2  A    between atoms: O_1  and  C_16
REMARK    3  A    between atoms: O_3  and  C_19
REMARK    4  A    between atoms: O_3  and  C_25
REMARK    5  A    between atoms: N_4  and  C_10
REMARK    6  A    between atoms: C_16  and  C_19
REMARK    7  A    between atoms: C_17  and  C_18
REMARK                            x       y       z     vdW  Elec       q    Type
REMARK                         _______ _______ _______ _____ _____    ______ ____
ROOT
ATOM      1  O   UNL     1      90.992  -4.204  22.435  0.00  0.00    +0.000 OA
ATOM      2  N   UNL     1      90.122  -2.706  20.893  0.00  0.00    +0.000 N 
ATOM      3  C   UNL     1      90.281  -3.240  22.162  0.00  0.00    +0.000 C 
ATOM      4  H   UNL     1      89.467  -1.939  20.759  0.00  0.00    +0.000 HD
ENDROOT
BRANCH   3  10
ATOM      5  N   UNL     1      88.880  -1.420  22.958  0.00  0.00    +0.000 NA
ATOM      6  N   UNL     1      89.868  -4.231  25.117  0.00  0.00    +0.000 N 
ATOM      7  N   UNL     1      87.990  -1.254  25.217  0.00  0.00    +0.000 NA
ATOM      8  N   UNL     1      87.548   0.364  23.615  0.00  0.00    +0.000 N 
ATOM      9  N   UNL     1      86.333   2.208  23.836  0.00  0.00    +0.000 NA
ATOM     10  C   UNL     1      89.501  -2.586  23.244  0.00  0.00    +0.000 A 
ATOM     11  C   UNL     1      89.375  -3.099  24.522  0.00  0.00    +0.000 A 
ATOM     12  C   UNL     1      88.623  -2.424  25.478  0.00  0.00    +0.000 A 
ATOM     13  C   UNL     1      88.172  -0.834  23.948  0.00  0.00    +0.000 A 
ATOM     14  C   UNL     1      88.675  -3.179  26.675  0.00  0.00    +0.000 A 
ATOM     15  C   UNL     1      89.450  -4.290  26.423  0.00  0.00    +0.000 A 
ATOM     16  C   UNL     1      87.586   0.984  22.399  0.00  0.00    +0.000 A 
ATOM     17  C   UNL     1      86.783   1.135  24.445  0.00  0.00    +0.000 A 
ATOM     18  C   UNL     1      86.829   2.121  22.560  0.00  0.00    +0.000 A 
ATOM     19  H   UNL     1      90.453  -4.922  24.665  0.00  0.00    +0.000 HD
ENDBRANCH   3  10
BRANCH   2  20
ATOM     20  C   UNL     1      90.792  -3.247  19.735  0.00  0.00    +0.000 C 
ATOM     21  C   UNL     1      91.626  -3.103  16.906  0.00  0.00    +0.000 C 
ATOM     22  C   UNL     1      89.792  -3.490  18.601  0.00  0.00    +0.000 C 
ATOM     23  C   UNL     1      91.933  -2.327  19.291  0.00  0.00    +0.000 C 
ATOM     24  C   UNL     1      90.488  -4.019  17.350  0.00  0.00    +0.000 C 
ATOM     25  C   UNL     1      92.621  -2.861  18.038  0.00  0.00    +0.000 C 
BRANCH  21  26
ATOM     26  O   UNL     1      92.316  -3.693  15.810  0.00  0.00    +0.000 OA
BRANCH  26  27
ATOM     27  C   UNL     1      93.273  -4.645  16.250  0.00  0.00    +0.000 C 
BRANCH  27  28
ATOM     28  C   UNL     1      94.541  -4.487  15.433  0.00  0.00    +0.000 C 
BRANCH  28  29
ATOM     29  O   UNL     1      95.513  -3.801  16.213  0.00  0.00    +0.000 OA
ATOM     30  C   UNL     1      95.648  -2.447  15.803  0.00  0.00    +0.000 C 
ENDBRANCH  28  29
ENDBRANCH  27  28
ENDBRANCH  26  27
ENDBRANCH  21  26
ENDBRANCH   2  20
TORSDOF 6
ENDMDL
MODEL 3
REMARK VINA RESULT:      -4.8      3.556      8.921
REMARK  Name = 155598690
REMARK  7 active torsions:
REMARK  status: ('A' for Active; 'I' for Inactive)
REMARK    1  A    between atoms: O_1  and  C_11
REMARK    2  A    between atoms: O_1  and  C_16
REMARK    3  A    between atoms: O_3  and  C_19
REMARK    4  A    between atoms: O_3  and  C_25
REMARK    5  A    between atoms: N_4  and  C_10
REMARK    6  A    between atoms: C_16  and  C_19
REMARK    7  A    between atoms: C_17  and  C_18
REMARK                            x       y       z     vdW  Elec       q    Type
REMARK                         _______ _______ _______ _____ _____    ______ ____
ROOT
ATOM      1  O   UNL     1      87.541   1.364  22.447  0.00  0.00    +0.000 OA
ATOM      2  N   UNL     1      86.375  -0.025  23.892  0.00  0.00    +0.000 N 
ATOM      3  C   UNL     1      86.536   1.103  23.102  0.00  0.00    +0.000 C 
ATOM      4  H   UNL     1      85.525  -0.127  24.440  0.00  0.00    +0.000 HD
ENDROOT
BRANCH   3  10
ATOM      5  N   UNL     1      84.631   2.111  21.976  0.00  0.00    +0.000 NA
ATOM      6  N   UNL     1      85.628   3.060  25.389  0.00  0.00    +0.000 N 
ATOM      7  N   UNL     1      83.200   3.819  22.954  0.00  0.00    +0.000 NA
ATOM      8  N   UNL     1      82.834   3.008  20.812  0.00  0.00    +0.000 N 
ATOM      9  N   UNL     1      81.242   3.597  19.382  0.00  0.00    +0.000 NA
ATOM     10  C   UNL     1      85.394   2.053  23.090  0.00  0.00    +0.000 A 
ATOM     11  C   UNL     1      85.069   2.880  24.150  0.00  0.00    +0.000 A 
ATOM     12  C   UNL     1      83.981   3.743  24.059  0.00  0.00    +0.000 A 
ATOM     13  C   UNL     1      83.595   2.978  21.976  0.00  0.00    +0.000 A 
ATOM     14  C   UNL     1      83.895   4.454  25.281  0.00  0.00    +0.000 A 
ATOM     15  C   UNL     1      84.924   4.012  26.083  0.00  0.00    +0.000 A 
ATOM     16  C   UNL     1      83.039   2.252  19.694  0.00  0.00    +0.000 A 
ATOM     17  C   UNL     1      81.745   3.799  20.579  0.00  0.00    +0.000 A 
ATOM     18  C   UNL     1      82.044   2.633  18.824  0.00  0.00    +0.000 A 
ATOM     19  H   UNL     1      86.438   2.567  25.742  0.00  0.00    +0.000 HD
ENDBRANCH   3  10
BRANCH   2  20
ATOM     20  C   UNL     1      87.403  -1.028  24.028  0.00  0.00    +0.000 C 
ATOM     21  C   UNL     1      88.890  -3.035  25.604  0.00  0.00    +0.000 C 
ATOM     22  C   UNL     1      88.430  -0.605  25.082  0.00  0.00    +0.000 C 
ATOM     23  C   UNL     1      86.788  -2.392  24.358  0.00  0.00    +0.000 C 
ATOM     24  C   UNL     1      89.502  -1.674  25.275  0.00  0.00    +0.000 C 
ATOM     25  C   UNL     1      87.866  -3.454  24.553  0.00  0.00    +0.000 C 
BRANCH  21  26
ATOM     26  O   UNL     1      89.916  -4.019  25.660  0.00  0.00    +0.000 OA
BRANCH  26  27
ATOM     27  C   UNL     1      89.713  -5.038  24.692  0.00  0.00    +0.000 C 
BRANCH  27  28
ATOM     28  C   UNL     1      90.975  -5.194  23.865  0.00  0.00    +0.000 C 
BRANCH  28  29
ATOM     29  O   UNL     1      90.700  -4.808  22.524  0.00  0.00    +0.000 OA
ATOM     30  C   UNL     1      90.984  -3.432  22.310  0.00  0.00    +0.000 C 
ENDBRANCH  28  29
ENDBRANCH  27  28
ENDBRANCH  26  27
ENDBRANCH  21  26
ENDBRANCH   2  20
TORSDOF 6
ENDMDL
MODEL 4
REMARK VINA RESULT:      -4.7      2.446      5.360
REMARK  Name = 155598690
REMARK  7 active torsions:
REMARK  status: ('A' for Active; 'I' for Inactive)
REMARK    1  A    between atoms: O_1  and  C_11
REMARK    2  A    between atoms: O_1  and  C_16
REMARK    3  A    between atoms: O_3  and  C_19
REMARK    4  A    between atoms: O_3  and  C_25
REMARK    5  A    between atoms: N_4  and  C_10
REMARK    6  A    between atoms: C_16  and  C_19
REMARK    7  A    between atoms: C_17  and  C_18
REMARK                            x       y       z     vdW  Elec       q    Type
REMARK                         _______ _______ _______ _____ _____    ______ ____
ROOT
ATOM      1  O   UNL     1      88.850   0.382  25.268  0.00  0.00    +0.000 OA
ATOM      2  N   UNL     1      87.197  -0.617  23.985  0.00  0.00    +0.000 N 
ATOM      3  C   UNL     1      88.310  -0.621  24.812  0.00  0.00    +0.000 C 
ATOM      4  H   UNL     1      86.854  -1.499  23.614  0.00  0.00    +0.000 HD
ENDROOT
BRANCH   3  10
ATOM      5  N   UNL     1      88.704  -2.436  26.381  0.00  0.00    +0.000 NA
ATOM      6  N   UNL     1      89.903  -2.546  22.903  0.00  0.00    +0.000 N 
ATOM      7  N   UNL     1      89.905  -4.483  25.844  0.00  0.00    +0.000 NA
ATOM      8  N   UNL     1      89.024  -4.110  27.956  0.00  0.00    +0.000 N 
ATOM      9  N   UNL     1      89.112  -5.444  29.729  0.00  0.00    +0.000 NA
ATOM     10  C   UNL     1      88.876  -1.958  25.129  0.00  0.00    +0.000 A 
ATOM     11  C   UNL     1      89.566  -2.737  24.218  0.00  0.00    +0.000 A 
ATOM     12  C   UNL     1      90.064  -3.981  24.595  0.00  0.00    +0.000 A 
ATOM     13  C   UNL     1      89.222  -3.653  26.658  0.00  0.00    +0.000 A 
ATOM     14  C   UNL     1      90.715  -4.541  23.468  0.00  0.00    +0.000 A 
ATOM     15  C   UNL     1      90.600  -3.633  22.438  0.00  0.00    +0.000 A 
ATOM     16  C   UNL     1      88.366  -3.450  28.954  0.00  0.00    +0.000 A 
ATOM     17  C   UNL     1      89.454  -5.302  28.468  0.00  0.00    +0.000 A 
ATOM     18  C   UNL     1      88.433  -4.293  30.038  0.00  0.00    +0.000 A 
ATOM     19  H   UNL     1      89.674  -1.727  22.354  0.00  0.00    +0.000 HD
ENDBRANCH   3  10
BRANCH   2  20
ATOM     20  C   UNL     1      86.549   0.603  23.566  0.00  0.00    +0.000 C 
ATOM     21  C   UNL     1      84.464   2.059  22.065  0.00  0.00    +0.000 C 
ATOM     22  C   UNL     1      86.631   0.759  22.045  0.00  0.00    +0.000 C 
ATOM     23  C   UNL     1      85.099   0.641  24.057  0.00  0.00    +0.000 C 
ATOM     24  C   UNL     1      85.911   2.020  21.575  0.00  0.00    +0.000 C 
ATOM     25  C   UNL     1      84.384   1.902  23.581  0.00  0.00    +0.000 C 
BRANCH  21  26
ATOM     26  O   UNL     1      83.871   3.301  21.702  0.00  0.00    +0.000 OA
BRANCH  26  27
ATOM     27  C   UNL     1      82.738   3.112  20.867  0.00  0.00    +0.000 C 
BRANCH  27  28
ATOM     28  C   UNL     1      83.128   3.400  19.430  0.00  0.00    +0.000 C 
BRANCH  28  29
ATOM     29  O   UNL     1      83.209   2.172  18.717  0.00  0.00    +0.000 OA
ATOM     30  C   UNL     1      84.487   2.001  18.119  0.00  0.00    +0.000 C 
ENDBRANCH  28  29
ENDBRANCH  27  28
ENDBRANCH  26  27
ENDBRANCH  21  26
ENDBRANCH   2  20
TORSDOF 6
ENDMDL
MODEL 5
REMARK VINA RESULT:      -4.5      1.943      4.733
REMARK  Name = 155598690
REMARK  7 active torsions:
REMARK  status: ('A' for Active; 'I' for Inactive)
REMARK    1  A    between atoms: O_1  and  C_11
REMARK    2  A    between atoms: O_1  and  C_16
REMARK    3  A    between atoms: O_3  and  C_19
REMARK    4  A    between atoms: O_3  and  C_25
REMARK    5  A    between atoms: N_4  and  C_10
REMARK    6  A    between atoms: C_16  and  C_19
REMARK    7  A    between atoms: C_17  and  C_18
REMARK                            x       y       z     vdW  Elec       q    Type
REMARK                         _______ _______ _______ _____ _____    ______ ____
ROOT
ATOM      1  O   UNL     1      88.577   0.175  22.908  0.00  0.00    +0.000 OA
ATOM      2  N   UNL     1      86.759  -0.468  24.195  0.00  0.00    +0.000 N 
ATOM      3  C   UNL     1      88.006  -0.648  23.617  0.00  0.00    +0.000 C 
ATOM      4  H   UNL     1      86.344  -1.231  24.724  0.00  0.00    +0.000 HD
ENDROOT
BRANCH   3  10
ATOM      5  N   UNL     1      88.633  -2.432  25.145  0.00  0.00    +0.000 NA
ATOM      6  N   UNL     1      89.486  -2.516  21.566  0.00  0.00    +0.000 N 
ATOM      7  N   UNL     1      89.864  -4.429  24.499  0.00  0.00    +0.000 NA
ATOM      8  N   UNL     1      89.182  -4.078  26.687  0.00  0.00    +0.000 N 
ATOM      9  N   UNL     1      89.504  -5.394  28.446  0.00  0.00    +0.000 NA
ATOM     10  C   UNL     1      88.659  -1.956  23.881  0.00  0.00    +0.000 A 
ATOM     11  C   UNL     1      89.290  -2.712  22.909  0.00  0.00    +0.000 A 
ATOM     12  C   UNL     1      89.877  -3.930  23.239  0.00  0.00    +0.000 A 
ATOM     13  C   UNL     1      89.229  -3.623  25.374  0.00  0.00    +0.000 A 
ATOM     14  C   UNL     1      90.437  -4.469  22.055  0.00  0.00    +0.000 A 
ATOM     15  C   UNL     1      90.181  -3.575  21.039  0.00  0.00    +0.000 A 
ATOM     16  C   UNL     1      88.597  -3.440  27.743  0.00  0.00    +0.000 A 
ATOM     17  C   UNL     1      89.713  -5.246  27.157  0.00  0.00    +0.000 A 
ATOM     18  C   UNL     1      88.808  -4.271  28.818  0.00  0.00    +0.000 A 
ATOM     19  H   UNL     1      89.167  -1.712  21.040  0.00  0.00    +0.000 HD
ENDBRANCH   3  10
BRANCH   2  20
ATOM     20  C   UNL     1      85.987   0.738  24.011  0.00  0.00    +0.000 C 
ATOM     21  C   UNL     1      84.118   2.806  24.985  0.00  0.00    +0.000 C 
ATOM     22  C   UNL     1      84.492   0.446  24.162  0.00  0.00    +0.000 C 
ATOM     23  C   UNL     1      86.448   1.828  24.983  0.00  0.00    +0.000 C 
ATOM     24  C   UNL     1      83.659   1.717  24.017  0.00  0.00    +0.000 C 
ATOM     25  C   UNL     1      85.609   3.094  24.834  0.00  0.00    +0.000 C 
BRANCH  21  26
ATOM     26  O   UNL     1      83.393   4.005  24.734  0.00  0.00    +0.000 OA
BRANCH  26  27
ATOM     27  C   UNL     1      83.057   4.132  23.361  0.00  0.00    +0.000 C 
BRANCH  27  28
ATOM     28  C   UNL     1      81.602   4.544  23.243  0.00  0.00    +0.000 C 
BRANCH  28  29
ATOM     29  O   UNL     1      81.209   4.474  21.878  0.00  0.00    +0.000 OA
ATOM     30  C   UNL     1      81.958   3.496  21.170  0.00  0.00    +0.000 C 
ENDBRANCH  28  29
ENDBRANCH  27  28
ENDBRANCH  26  27
ENDBRANCH  21  26
ENDBRANCH   2  20
TORSDOF 6
ENDMDL
MODEL 6
REMARK VINA RESULT:      -4.5      3.537      9.573
REMARK  Name = 155598690
REMARK  7 active torsions:
REMARK  status: ('A' for Active; 'I' for Inactive)
REMARK    1  A    between atoms: O_1  and  C_11
REMARK    2  A    between atoms: O_1  and  C_16
REMARK    3  A    between atoms: O_3  and  C_19
REMARK    4  A    between atoms: O_3  and  C_25
REMARK    5  A    between atoms: N_4  and  C_10
REMARK    6  A    between atoms: C_16  and  C_19
REMARK    7  A    between atoms: C_17  and  C_18
REMARK                            x       y       z     vdW  Elec       q    Type
REMARK                         _______ _______ _______ _____ _____    ______ ____
ROOT
ATOM      1  O   UNL     1      87.579   1.386  22.468  0.00  0.00    +0.000 OA
ATOM      2  N   UNL     1      86.279  -0.169  23.593  0.00  0.00    +0.000 N 
ATOM      3  C   UNL     1      86.494   1.016  22.908  0.00  0.00    +0.000 C 
ATOM      4  H   UNL     1      85.353  -0.363  23.966  0.00  0.00    +0.000 HD
ENDROOT
BRANCH   3  10
ATOM      5  N   UNL     1      84.694   2.357  23.841  0.00  0.00    +0.000 NA
ATOM      6  N   UNL     1      85.164   1.945  20.215  0.00  0.00    +0.000 N 
ATOM      7  N   UNL     1      83.039   3.552  22.517  0.00  0.00    +0.000 NA
ATOM      8  N   UNL     1      83.013   3.611  24.835  0.00  0.00    +0.000 N 
ATOM      9  N   UNL     1      81.587   4.681  26.159  0.00  0.00    +0.000 NA
ATOM     10  C   UNL     1      85.304   1.888  22.731  0.00  0.00    +0.000 A 
ATOM     11  C   UNL     1      84.788   2.245  21.499  0.00  0.00    +0.000 A 
ATOM     12  C   UNL     1      83.668   3.068  21.419  0.00  0.00    +0.000 A 
ATOM     13  C   UNL     1      83.613   3.149  23.669  0.00  0.00    +0.000 A 
ATOM     14  C   UNL     1      83.375   3.259  20.047  0.00  0.00    +0.000 A 
ATOM     15  C   UNL     1      84.314   2.555  19.326  0.00  0.00    +0.000 A 
ATOM     16  C   UNL     1      83.413   3.340  26.113  0.00  0.00    +0.000 A 
ATOM     17  C   UNL     1      81.914   4.420  24.913  0.00  0.00    +0.000 A 
ATOM     18  C   UNL     1      82.518   4.011  26.912  0.00  0.00    +0.000 A 
ATOM     19  H   UNL     1      85.950   1.362  19.957  0.00  0.00    +0.000 HD
ENDBRANCH   3  10
BRANCH   2  20
ATOM     20  C   UNL     1      87.339  -1.110  23.867  0.00  0.00    +0.000 C 
ATOM     21  C   UNL     1      88.795  -2.936  25.673  0.00  0.00    +0.000 C 
ATOM     22  C   UNL     1      88.265  -0.570  24.961  0.00  0.00    +0.000 C 
ATOM     23  C   UNL     1      86.764  -2.479  24.242  0.00  0.00    +0.000 C 
ATOM     24  C   UNL     1      89.367  -1.570  25.299  0.00  0.00    +0.000 C 
ATOM     25  C   UNL     1      87.872  -3.472  24.582  0.00  0.00    +0.000 C 
BRANCH  21  26
ATOM     26  O   UNL     1      89.858  -3.863  25.866  0.00  0.00    +0.000 OA
BRANCH  26  27
ATOM     27  C   UNL     1      89.718  -4.999  25.025  0.00  0.00    +0.000 C 
BRANCH  27  28
ATOM     28  C   UNL     1      90.968  -5.146  24.179  0.00  0.00    +0.000 C 
BRANCH  28  29
ATOM     29  O   UNL     1      90.649  -4.849  22.825  0.00  0.00    +0.000 OA
ATOM     30  C   UNL     1      90.992  -3.512  22.491  0.00  0.00    +0.000 C 
ENDBRANCH  28  29
ENDBRANCH  27  28
ENDBRANCH  26  27
ENDBRANCH  21  26
ENDBRANCH   2  20
TORSDOF 6
ENDMDL
MODEL 7
REMARK VINA RESULT:      -4.4      1.502      2.400
REMARK  Name = 155598690
REMARK  7 active torsions:
REMARK  status: ('A' for Active; 'I' for Inactive)
REMARK    1  A    between atoms: O_1  and  C_11
REMARK    2  A    between atoms: O_1  and  C_16
REMARK    3  A    between atoms: O_3  and  C_19
REMARK    4  A    between atoms: O_3  and  C_25
REMARK    5  A    between atoms: N_4  and  C_10
REMARK    6  A    between atoms: C_16  and  C_19
REMARK    7  A    between atoms: C_17  and  C_18
REMARK                            x       y       z     vdW  Elec       q    Type
REMARK                         _______ _______ _______ _____ _____    ______ ____
ROOT
ATOM      1  O   UNL     1      88.583  -1.085  24.383  0.00  0.00    +0.000 OA
ATOM      2  N   UNL     1      87.376  -1.242  22.410  0.00  0.00    +0.000 N 
ATOM      3  C   UNL     1      88.358  -1.631  23.307  0.00  0.00    +0.000 C 
ATOM      4  H   UNL     1      87.302  -1.724  21.518  0.00  0.00    +0.000 HD
ENDROOT
BRANCH   3  10
ATOM      5  N   UNL     1      89.341  -3.015  21.567  0.00  0.00    +0.000 NA
ATOM      6  N   UNL     1      89.883  -3.676  25.146  0.00  0.00    +0.000 N 
ATOM      7  N   UNL     1      90.762  -4.946  21.982  0.00  0.00    +0.000 NA
ATOM      8  N   UNL     1      90.231  -4.269  19.828  0.00  0.00    +0.000 N 
ATOM      9  N   UNL     1      90.869  -5.188  17.911  0.00  0.00    +0.000 NA
ATOM     10  C   UNL     1      89.195  -2.785  22.890  0.00  0.00    +0.000 A 
ATOM     11  C   UNL     1      89.831  -3.636  23.776  0.00  0.00    +0.000 A 
ATOM     12  C   UNL     1      90.600  -4.695  23.304  0.00  0.00    +0.000 A 
ATOM     13  C   UNL     1      90.105  -4.066  21.198  0.00  0.00    +0.000 A 
ATOM     14  C   UNL     1      91.120  -5.382  24.428  0.00  0.00    +0.000 A 
ATOM     15  C   UNL     1      90.661  -4.730  25.552  0.00  0.00    +0.000 A 
ATOM     16  C   UNL     1      89.662  -3.513  18.844  0.00  0.00    +0.000 A 
ATOM     17  C   UNL     1      90.946  -5.262  19.221  0.00  0.00    +0.000 A 
ATOM     18  C   UNL     1      90.070  -4.100  17.669  0.00  0.00    +0.000 A 
ATOM     19  H   UNL     1      89.417  -3.027  25.768  0.00  0.00    +0.000 HD
ENDBRANCH   3  10
BRANCH   2  20
ATOM     20  C   UNL     1      86.499  -0.123  22.660  0.00  0.00    +0.000 C 
ATOM     21  C   UNL     1      84.756   2.074  21.736  0.00  0.00    +0.000 C 
ATOM     22  C   UNL     1      87.088   1.162  22.072  0.00  0.00    +0.000 C 
ATOM     23  C   UNL     1      85.097  -0.401  22.109  0.00  0.00    +0.000 C 
ATOM     24  C   UNL     1      86.154   2.351  22.283  0.00  0.00    +0.000 C 
ATOM     25  C   UNL     1      84.170   0.792  22.322  0.00  0.00    +0.000 C 
BRANCH  21  26
ATOM     26  O   UNL     1      83.893   3.159  22.058  0.00  0.00    +0.000 OA
BRANCH  26  27
ATOM     27  C   UNL     1      82.821   3.265  21.133  0.00  0.00    +0.000 C 
BRANCH  27  28
ATOM     28  C   UNL     1      83.380   3.251  19.723  0.00  0.00    +0.000 C 
BRANCH  28  29
ATOM     29  O   UNL     1      82.426   2.656  18.852  0.00  0.00    +0.000 OA
ATOM     30  C   UNL     1      82.404   1.243  18.992  0.00  0.00    +0.000 C 
ENDBRANCH  28  29
ENDBRANCH  27  28
ENDBRANCH  26  27
ENDBRANCH  21  26
ENDBRANCH   2  20
TORSDOF 6
ENDMDL
MODEL 8
REMARK VINA RESULT:      -4.3      7.643     11.301
REMARK  Name = 155598690
REMARK  7 active torsions:
REMARK  status: ('A' for Active; 'I' for Inactive)
REMARK    1  A    between atoms: O_1  and  C_11
REMARK    2  A    between atoms: O_1  and  C_16
REMARK    3  A    between atoms: O_3  and  C_19
REMARK    4  A    between atoms: O_3  and  C_25
REMARK    5  A    between atoms: N_4  and  C_10
REMARK    6  A    between atoms: C_16  and  C_19
REMARK    7  A    between atoms: C_17  and  C_18
REMARK                            x       y       z     vdW  Elec       q    Type
REMARK                         _______ _______ _______ _____ _____    ______ ____
ROOT
ATOM      1  O   UNL     1      82.647   2.556  29.199  0.00  0.00    +0.000 OA
ATOM      2  N   UNL     1      84.123   3.964  28.096  0.00  0.00    +0.000 N 
ATOM      3  C   UNL     1      83.543   3.395  29.219  0.00  0.00    +0.000 C 
ATOM      4  H   UNL     1      84.822   4.692  28.216  0.00  0.00    +0.000 HD
ENDROOT
BRANCH   3  10
ATOM      5  N   UNL     1      85.235   4.536  30.540  0.00  0.00    +0.000 NA
ATOM      6  N   UNL     1      82.210   3.083  32.049  0.00  0.00    +0.000 N 
ATOM      7  N   UNL     1      85.124   4.843  32.951  0.00  0.00    +0.000 NA
ATOM      8  N   UNL     1      86.908   5.644  31.706  0.00  0.00    +0.000 N 
ATOM      9  N   UNL     1      88.695   6.746  32.431  0.00  0.00    +0.000 NA
ATOM     10  C   UNL     1      84.055   3.879  30.527  0.00  0.00    +0.000 A 
ATOM     11  C   UNL     1      83.395   3.694  31.728  0.00  0.00    +0.000 A 
ATOM     12  C   UNL     1      83.942   4.179  32.912  0.00  0.00    +0.000 A 
ATOM     13  C   UNL     1      85.691   4.972  31.735  0.00  0.00    +0.000 A 
ATOM     14  C   UNL     1      83.054   3.845  33.963  0.00  0.00    +0.000 A 
ATOM     15  C   UNL     1      81.993   3.169  33.402  0.00  0.00    +0.000 A 
ATOM     16  C   UNL     1      87.666   5.897  30.599  0.00  0.00    +0.000 A 
ATOM     17  C   UNL     1      87.565   6.173  32.782  0.00  0.00    +0.000 A 
ATOM     18  C   UNL     1      88.764   6.578  31.071  0.00  0.00    +0.000 A 
ATOM     19  H   UNL     1      81.586   2.635  31.390  0.00  0.00    +0.000 HD
ENDBRANCH   3  10
BRANCH   2  20
ATOM     20  C   UNL     1      83.716   3.618  26.755  0.00  0.00    +0.000 C 
ATOM     21  C   UNL     1      83.087   4.332  23.959  0.00  0.00    +0.000 C 
ATOM     22  C   UNL     1      82.406   4.322  26.393  0.00  0.00    +0.000 C 
ATOM     23  C   UNL     1      84.826   3.945  25.751  0.00  0.00    +0.000 C 
ATOM     24  C   UNL     1      81.981   4.006  24.961  0.00  0.00    +0.000 C 
ATOM     25  C   UNL     1      84.393   3.630  24.322  0.00  0.00    +0.000 C 
BRANCH  21  26
ATOM     26  O   UNL     1      82.691   3.914  22.658  0.00  0.00    +0.000 OA
BRANCH  26  27
ATOM     27  C   UNL     1      83.549   2.902  22.153  0.00  0.00    +0.000 C 
BRANCH  27  28
ATOM     28  C   UNL     1      83.537   2.953  20.637  0.00  0.00    +0.000 C 
BRANCH  28  29
ATOM     29  O   UNL     1      84.730   2.356  20.143  0.00  0.00    +0.000 OA
ATOM     30  C   UNL     1      85.753   2.345  21.130  0.00  0.00    +0.000 C 
ENDBRANCH  28  29
ENDBRANCH  27  28
ENDBRANCH  26  27
ENDBRANCH  21  26
ENDBRANCH   2  20
TORSDOF 6
ENDMDL
MODEL 9
REMARK VINA RESULT:      -4.3      3.726      9.891
REMARK  Name = 155598690
REMARK  7 active torsions:
REMARK  status: ('A' for Active; 'I' for Inactive)
REMARK    1  A    between atoms: O_1  and  C_11
REMARK    2  A    between atoms: O_1  and  C_16
REMARK    3  A    between atoms: O_3  and  C_19
REMARK    4  A    between atoms: O_3  and  C_25
REMARK    5  A    between atoms: N_4  and  C_10
REMARK    6  A    between atoms: C_16  and  C_19
REMARK    7  A    between atoms: C_17  and  C_18
REMARK                            x       y       z     vdW  Elec       q    Type
REMARK                         _______ _______ _______ _____ _____    ______ ____
ROOT
ATOM      1  O   UNL     1      87.251   2.733  23.655  0.00  0.00    +0.000 OA
ATOM      2  N   UNL     1      86.348   0.598  23.658  0.00  0.00    +0.000 N 
ATOM      3  C   UNL     1      86.281   1.982  23.692  0.00  0.00    +0.000 C 
ATOM      4  H   UNL     1      85.490   0.059  23.748  0.00  0.00    +0.000 HD
ENDROOT
BRANCH   3  10
ATOM      5  N   UNL     1      84.447   2.839  25.038  0.00  0.00    +0.000 NA
ATOM      6  N   UNL     1      84.280   2.671  21.366  0.00  0.00    +0.000 N 
ATOM      7  N   UNL     1      82.344   3.665  24.135  0.00  0.00    +0.000 NA
ATOM      8  N   UNL     1      82.758   3.638  26.416  0.00  0.00    +0.000 N 
ATOM      9  N   UNL     1      81.419   4.304  28.056  0.00  0.00    +0.000 NA
ATOM     10  C   UNL     1      84.917   2.562  23.803  0.00  0.00    +0.000 A 
ATOM     11  C   UNL     1      84.105   2.832  22.716  0.00  0.00    +0.000 A 
ATOM     12  C   UNL     1      82.839   3.377  22.906  0.00  0.00    +0.000 A 
ATOM     13  C   UNL     1      83.207   3.367  25.128  0.00  0.00    +0.000 A 
ATOM     14  C   UNL     1      82.248   3.542  21.629  0.00  0.00    +0.000 A 
ATOM     15  C   UNL     1      83.161   3.098  20.697  0.00  0.00    +0.000 A 
ATOM     16  C   UNL     1      83.449   3.422  27.574  0.00  0.00    +0.000 A 
ATOM     17  C   UNL     1      81.546   4.168  26.755  0.00  0.00    +0.000 A 
ATOM     18  C   UNL     1      82.602   3.841  28.573  0.00  0.00    +0.000 A 
ATOM     19  H   UNL     1      85.109   2.293  20.925  0.00  0.00    +0.000 HD
ENDBRANCH   3  10
BRANCH   2  20
ATOM     20  C   UNL     1      87.601  -0.115  23.578  0.00  0.00    +0.000 C 
ATOM     21  C   UNL     1      89.257  -2.523  24.001  0.00  0.00    +0.000 C 
ATOM     22  C   UNL     1      88.085  -0.508  24.976  0.00  0.00    +0.000 C 
ATOM     23  C   UNL     1      87.470  -1.337  22.665  0.00  0.00    +0.000 C 
ATOM     24  C   UNL     1      89.385  -1.304  24.912  0.00  0.00    +0.000 C 
ATOM     25  C   UNL     1      88.772  -2.130  22.607  0.00  0.00    +0.000 C 
BRANCH  21  26
ATOM     26  O   UNL     1      90.521  -3.166  23.880  0.00  0.00    +0.000 OA
BRANCH  26  27
ATOM     27  C   UNL     1      90.399  -4.577  23.984  0.00  0.00    +0.000 C 
BRANCH  27  28
ATOM     28  C   UNL     1      89.299  -4.908  24.974  0.00  0.00    +0.000 C 
BRANCH  28  29
ATOM     29  O   UNL     1      89.875  -5.100  26.260  0.00  0.00    +0.000 OA
ATOM     30  C   UNL     1      89.024  -4.615  27.289  0.00  0.00    +0.000 C 
ENDBRANCH  28  29
ENDBRANCH  27  28
ENDBRANCH  26  27
ENDBRANCH  21  26
ENDBRANCH   2  20
TORSDOF 6
ENDMDL
