MODEL 1
REMARK VINA RESULT:      -6.5      0.000      0.000
REMARK  Name = 118736856
REMARK  9 active torsions:
REMARK  status: ('A' for Active; 'I' for Inactive)
REMARK    1  A    between atoms: O_2  and  C_11
REMARK    2  A    between atoms: O_2  and  C_15
REMARK    3  A    between atoms: O_3  and  C_19
REMARK    4  A    between atoms: O_3  and  C_27
REMARK    5  A    between atoms: N_5  and  C_8
REMARK    6  A    between atoms: N_5  and  C_14
REMARK    7  A    between atoms: N_6  and  C_25
REMARK    8  A    between atoms: C_15  and  C_19
REMARK    9  A    between atoms: C_23  and  C_26
REMARK                            x       y       z     vdW  Elec       q    Type
REMARK                         _______ _______ _______ _____ _____    ______ ____
ROOT
ATOM      1  O   UNL     1      84.524   3.300  26.711  0.00  0.00    +0.000 OA
ATOM      2  N   UNL     1      83.671   3.168  24.547  0.00  0.00    +0.000 N 
ATOM      3  C   UNL     1      86.359   2.694  23.716  0.00  0.00    +0.000 A 
ATOM      4  C   UNL     1      85.262   2.732  22.721  0.00  0.00    +0.000 A 
ATOM      5  C   UNL     1      86.057   2.887  25.008  0.00  0.00    +0.000 A 
ATOM      6  C   UNL     1      83.938   2.969  23.153  0.00  0.00    +0.000 A 
ATOM      7  C   UNL     1      85.494   2.541  21.345  0.00  0.00    +0.000 A 
ATOM      8  C   UNL     1      84.683   3.137  25.501  0.00  0.00    +0.000 A 
ATOM      9  C   UNL     1      82.898   3.004  22.202  0.00  0.00    +0.000 A 
ATOM     10  C   UNL     1      84.451   2.580  20.417  0.00  0.00    +0.000 A 
ATOM     11  C   UNL     1      83.154   2.810  20.846  0.00  0.00    +0.000 A 
ATOM     12  C   UNL     1      82.296   3.410  24.978  0.00  0.00    +0.000 C 
ENDROOT
BRANCH  10  15
ATOM     13  S   UNL     1      84.606   0.807  18.337  0.00  0.00    +0.000 S 
ATOM     14  N   UNL     1      85.273   2.753  16.772  0.00  0.00    +0.000 NA
ATOM     15  C   UNL     1      84.723   2.378  19.015  0.00  0.00    +0.000 A 
ATOM     16  C   UNL     1      85.085   3.279  18.035  0.00  0.00    +0.000 A 
ATOM     17  C   UNL     1      85.049   1.459  16.811  0.00  0.00    +0.000 A 
ENDBRANCH  10  15
BRANCH   3  18
ATOM     18  N   UNL     1      87.647   2.466  23.313  0.00  0.00    +0.000 N 
ATOM     19  H   UNL     1      88.157   3.212  22.859  0.00  0.00    +0.000 HD
BRANCH  18  20
ATOM     20  C   UNL     1      88.386   1.272  23.659  0.00  0.00    +0.000 C 
ATOM     21  C   UNL     1      88.415   1.113  25.182  0.00  0.00    +0.000 C 
ATOM     22  C   UNL     1      87.744   0.060  22.981  0.00  0.00    +0.000 C 
ATOM     23  C   UNL     1      88.456  -1.399  24.918  0.00  0.00    +0.000 C 
ATOM     24  C   UNL     1      89.098  -0.189  25.593  0.00  0.00    +0.000 C 
ATOM     25  C   UNL     1      88.426  -1.241  23.398  0.00  0.00    +0.000 C 
BRANCH  23  26
ATOM     26  O   UNL     1      89.204  -2.561  25.263  0.00  0.00    +0.000 OA
BRANCH  26  27
ATOM     27  C   UNL     1      90.206  -2.839  24.295  0.00  0.00    +0.000 C 
BRANCH  27  28
ATOM     28  C   UNL     1      90.402  -4.340  24.205  0.00  0.00    +0.000 C 
BRANCH  28  29
ATOM     29  O   UNL     1      91.019  -4.655  22.962  0.00  0.00    +0.000 OA
ATOM     30  C   UNL     1      90.991  -3.548  22.072  0.00  0.00    +0.000 C 
ENDBRANCH  28  29
ENDBRANCH  27  28
ENDBRANCH  26  27
ENDBRANCH  23  26
ENDBRANCH  18  20
ENDBRANCH   3  18
TORSDOF 7
ENDMDL
MODEL 2
REMARK VINA RESULT:      -6.3      3.711      8.291
REMARK  Name = 118736856
REMARK  9 active torsions:
REMARK  status: ('A' for Active; 'I' for Inactive)
REMARK    1  A    between atoms: O_2  and  C_11
REMARK    2  A    between atoms: O_2  and  C_15
REMARK    3  A    between atoms: O_3  and  C_19
REMARK    4  A    between atoms: O_3  and  C_27
REMARK    5  A    between atoms: N_5  and  C_8
REMARK    6  A    between atoms: N_5  and  C_14
REMARK    7  A    between atoms: N_6  and  C_25
REMARK    8  A    between atoms: C_15  and  C_19
REMARK    9  A    between atoms: C_23  and  C_26
REMARK                            x       y       z     vdW  Elec       q    Type
REMARK                         _______ _______ _______ _____ _____    ______ ____
ROOT
ATOM      1  O   UNL     1      88.751  -3.330  27.851  0.00  0.00    +0.000 OA
ATOM      2  N   UNL     1      89.596  -4.385  25.953  0.00  0.00    +0.000 N 
ATOM      3  C   UNL     1      89.205  -1.893  24.621  0.00  0.00    +0.000 A 
ATOM      4  C   UNL     1      89.760  -3.055  23.889  0.00  0.00    +0.000 A 
ATOM      5  C   UNL     1      88.893  -2.042  25.916  0.00  0.00    +0.000 A 
ATOM      6  C   UNL     1      89.946  -4.280  24.567  0.00  0.00    +0.000 A 
ATOM      7  C   UNL     1      90.113  -2.982  22.527  0.00  0.00    +0.000 A 
ATOM      8  C   UNL     1      89.073  -3.309  26.663  0.00  0.00    +0.000 A 
ATOM      9  C   UNL     1      90.475  -5.383  23.866  0.00  0.00    +0.000 A 
ATOM     10  C   UNL     1      90.635  -4.085  21.849  0.00  0.00    +0.000 A 
ATOM     11  C   UNL     1      90.817  -5.285  22.519  0.00  0.00    +0.000 A 
ATOM     12  C   UNL     1      89.795  -5.659  26.640  0.00  0.00    +0.000 C 
ENDROOT
BRANCH  10  15
ATOM     13  S   UNL     1      90.575  -5.237  19.366  0.00  0.00    +0.000 S 
ATOM     14  N   UNL     1      91.827  -3.183  18.420  0.00  0.00    +0.000 NA
ATOM     15  C   UNL     1      90.987  -3.977  20.455  0.00  0.00    +0.000 A 
ATOM     16  C   UNL     1      91.644  -2.974  19.773  0.00  0.00    +0.000 A 
ATOM     17  C   UNL     1      91.304  -4.344  18.094  0.00  0.00    +0.000 A 
ENDBRANCH  10  15
BRANCH   3  18
ATOM     18  N   UNL     1      89.020  -0.698  23.978  0.00  0.00    +0.000 N 
ATOM     19  H   UNL     1      89.689  -0.411  23.276  0.00  0.00    +0.000 HD
BRANCH  18  20
ATOM     20  C   UNL     1      87.820   0.098  24.115  0.00  0.00    +0.000 C 
ATOM     21  C   UNL     1      88.078   1.245  25.095  0.00  0.00    +0.000 C 
ATOM     22  C   UNL     1      87.394   0.619  22.740  0.00  0.00    +0.000 C 
ATOM     23  C   UNL     1      86.446   2.696  23.824  0.00  0.00    +0.000 C 
ATOM     24  C   UNL     1      86.871   2.174  25.195  0.00  0.00    +0.000 C 
ATOM     25  C   UNL     1      86.190   1.551  22.845  0.00  0.00    +0.000 C 
BRANCH  23  26
ATOM     26  O   UNL     1      85.259   3.467  23.980  0.00  0.00    +0.000 OA
BRANCH  26  27
ATOM     27  C   UNL     1      84.942   3.661  25.351  0.00  0.00    +0.000 C 
BRANCH  27  28
ATOM     28  C   UNL     1      83.638   4.428  25.452  0.00  0.00    +0.000 C 
BRANCH  28  29
ATOM     29  O   UNL     1      83.539   5.325  24.352  0.00  0.00    +0.000 OA
ATOM     30  C   UNL     1      82.187   5.648  24.063  0.00  0.00    +0.000 C 
ENDBRANCH  28  29
ENDBRANCH  27  28
ENDBRANCH  26  27
ENDBRANCH  23  26
ENDBRANCH  18  20
ENDBRANCH   3  18
TORSDOF 7
ENDMDL
MODEL 3
REMARK VINA RESULT:      -6.1      1.661      2.444
REMARK  Name = 118736856
REMARK  9 active torsions:
REMARK  status: ('A' for Active; 'I' for Inactive)
REMARK    1  A    between atoms: O_2  and  C_11
REMARK    2  A    between atoms: O_2  and  C_15
REMARK    3  A    between atoms: O_3  and  C_19
REMARK    4  A    between atoms: O_3  and  C_27
REMARK    5  A    between atoms: N_5  and  C_8
REMARK    6  A    between atoms: N_5  and  C_14
REMARK    7  A    between atoms: N_6  and  C_25
REMARK    8  A    between atoms: C_15  and  C_19
REMARK    9  A    between atoms: C_23  and  C_26
REMARK                            x       y       z     vdW  Elec       q    Type
REMARK                         _______ _______ _______ _____ _____    ______ ____
ROOT
ATOM      1  O   UNL     1      84.320   4.397  26.179  0.00  0.00    +0.000 OA
ATOM      2  N   UNL     1      83.593   3.915  24.018  0.00  0.00    +0.000 N 
ATOM      3  C   UNL     1      86.062   2.522  23.699  0.00  0.00    +0.000 A 
ATOM      4  C   UNL     1      85.086   2.583  22.586  0.00  0.00    +0.000 A 
ATOM      5  C   UNL     1      85.757   3.134  24.851  0.00  0.00    +0.000 A 
ATOM      6  C   UNL     1      83.869   3.278  22.765  0.00  0.00    +0.000 A 
ATOM      7  C   UNL     1      85.330   1.967  21.342  0.00  0.00    +0.000 A 
ATOM      8  C   UNL     1      84.493   3.872  25.079  0.00  0.00    +0.000 A 
ATOM      9  C   UNL     1      82.944   3.332  21.703  0.00  0.00    +0.000 A 
ATOM     10  C   UNL     1      84.401   2.032  20.302  0.00  0.00    +0.000 A 
ATOM     11  C   UNL     1      83.208   2.714  20.483  0.00  0.00    +0.000 A 
ATOM     12  C   UNL     1      82.330   4.630  24.188  0.00  0.00    +0.000 C 
ENDROOT
BRANCH  10  15
ATOM     13  S   UNL     1      84.608   2.292  17.584  0.00  0.00    +0.000 S 
ATOM     14  N   UNL     1      85.226  -0.213  17.426  0.00  0.00    +0.000 NA
ATOM     15  C   UNL     1      84.681   1.390  19.041  0.00  0.00    +0.000 A 
ATOM     16  C   UNL     1      85.024   0.083  18.760  0.00  0.00    +0.000 A 
ATOM     17  C   UNL     1      85.034   0.875  16.714  0.00  0.00    +0.000 A 
ENDBRANCH  10  15
BRANCH   3  18
ATOM     18  N   UNL     1      87.245   1.851  23.540  0.00  0.00    +0.000 N 
ATOM     19  H   UNL     1      88.013   2.316  23.073  0.00  0.00    +0.000 HD
BRANCH  18  20
ATOM     20  C   UNL     1      87.523   0.575  24.163  0.00  0.00    +0.000 C 
ATOM     21  C   UNL     1      87.871  -0.454  23.085  0.00  0.00    +0.000 C 
ATOM     22  C   UNL     1      88.661   0.737  25.173  0.00  0.00    +0.000 C 
ATOM     23  C   UNL     1      89.408  -1.632  24.708  0.00  0.00    +0.000 C 
ATOM     24  C   UNL     1      88.271  -1.792  23.701  0.00  0.00    +0.000 C 
ATOM     25  C   UNL     1      89.061  -0.603  25.784  0.00  0.00    +0.000 C 
BRANCH  23  26
ATOM     26  O   UNL     1      89.657  -2.894  25.317  0.00  0.00    +0.000 OA
BRANCH  26  27
ATOM     27  C   UNL     1      88.997  -3.007  26.569  0.00  0.00    +0.000 C 
BRANCH  27  28
ATOM     28  C   UNL     1      87.931  -4.081  26.470  0.00  0.00    +0.000 C 
BRANCH  28  29
ATOM     29  O   UNL     1      87.011  -3.924  27.543  0.00  0.00    +0.000 OA
ATOM     30  C   UNL     1      87.664  -3.984  28.803  0.00  0.00    +0.000 C 
ENDBRANCH  28  29
ENDBRANCH  27  28
ENDBRANCH  26  27
ENDBRANCH  23  26
ENDBRANCH  18  20
ENDBRANCH   3  18
TORSDOF 7
ENDMDL
MODEL 4
REMARK VINA RESULT:      -6.1      3.380      7.983
REMARK  Name = 118736856
REMARK  9 active torsions:
REMARK  status: ('A' for Active; 'I' for Inactive)
REMARK    1  A    between atoms: O_2  and  C_11
REMARK    2  A    between atoms: O_2  and  C_15
REMARK    3  A    between atoms: O_3  and  C_19
REMARK    4  A    between atoms: O_3  and  C_27
REMARK    5  A    between atoms: N_5  and  C_8
REMARK    6  A    between atoms: N_5  and  C_14
REMARK    7  A    between atoms: N_6  and  C_25
REMARK    8  A    between atoms: C_15  and  C_19
REMARK    9  A    between atoms: C_23  and  C_26
REMARK                            x       y       z     vdW  Elec       q    Type
REMARK                         _______ _______ _______ _____ _____    ______ ____
ROOT
ATOM      1  O   UNL     1      88.766  -3.074  27.519  0.00  0.00    +0.000 OA
ATOM      2  N   UNL     1      89.632  -4.032  25.578  0.00  0.00    +0.000 N 
ATOM      3  C   UNL     1      88.978  -1.570  24.294  0.00  0.00    +0.000 A 
ATOM      4  C   UNL     1      89.606  -2.672  23.528  0.00  0.00    +0.000 A 
ATOM      5  C   UNL     1      88.727  -1.759  25.598  0.00  0.00    +0.000 A 
ATOM      6  C   UNL     1      89.922  -3.883  24.183  0.00  0.00    +0.000 A 
ATOM      7  C   UNL     1      89.901  -2.554  22.156  0.00  0.00    +0.000 A 
ATOM      8  C   UNL     1      89.043  -3.013  26.320  0.00  0.00    +0.000 A 
ATOM      9  C   UNL     1      90.519  -4.928  23.450  0.00  0.00    +0.000 A 
ATOM     10  C   UNL     1      90.493  -3.600  21.446  0.00  0.00    +0.000 A 
ATOM     11  C   UNL     1      90.803  -4.786  22.093  0.00  0.00    +0.000 A 
ATOM     12  C   UNL     1      89.965  -5.291  26.242  0.00  0.00    +0.000 C 
ENDROOT
BRANCH  10  15
ATOM     13  S   UNL     1      89.648  -3.971  18.868  0.00  0.00    +0.000 S 
ATOM     14  N   UNL     1      91.856  -2.921  18.029  0.00  0.00    +0.000 NA
ATOM     15  C   UNL     1      90.785  -3.448  20.041  0.00  0.00    +0.000 A 
ATOM     16  C   UNL     1      91.891  -2.918  19.410  0.00  0.00    +0.000 A 
ATOM     17  C   UNL     1      90.722  -3.453  17.633  0.00  0.00    +0.000 A 
ENDBRANCH  10  15
BRANCH   3  18
ATOM     18  N   UNL     1      88.666  -0.390  23.674  0.00  0.00    +0.000 N 
ATOM     19  H   UNL     1      89.252  -0.066  22.915  0.00  0.00    +0.000 HD
BRANCH  18  20
ATOM     20  C   UNL     1      87.440   0.337  23.921  0.00  0.00    +0.000 C 
ATOM     21  C   UNL     1      87.688   1.410  24.985  0.00  0.00    +0.000 C 
ATOM     22  C   UNL     1      86.938   0.950  22.612  0.00  0.00    +0.000 C 
ATOM     23  C   UNL     1      85.946   2.884  23.901  0.00  0.00    +0.000 C 
ATOM     24  C   UNL     1      86.448   2.270  25.207  0.00  0.00    +0.000 C 
ATOM     25  C   UNL     1      85.700   1.813  22.839  0.00  0.00    +0.000 C 
BRANCH  23  26
ATOM     26  O   UNL     1      84.735   3.584  24.165  0.00  0.00    +0.000 OA
BRANCH  26  27
ATOM     27  C   UNL     1      84.674   4.027  25.513  0.00  0.00    +0.000 C 
BRANCH  27  28
ATOM     28  C   UNL     1      83.224   4.054  25.959  0.00  0.00    +0.000 C 
BRANCH  28  29
ATOM     29  O   UNL     1      83.030   3.072  26.969  0.00  0.00    +0.000 OA
ATOM     30  C   UNL     1      83.480   3.531  28.235  0.00  0.00    +0.000 C 
ENDBRANCH  28  29
ENDBRANCH  27  28
ENDBRANCH  26  27
ENDBRANCH  23  26
ENDBRANCH  18  20
ENDBRANCH   3  18
TORSDOF 7
ENDMDL
MODEL 5
REMARK VINA RESULT:      -5.4      4.187      9.860
REMARK  Name = 118736856
REMARK  9 active torsions:
REMARK  status: ('A' for Active; 'I' for Inactive)
REMARK    1  A    between atoms: O_2  and  C_11
REMARK    2  A    between atoms: O_2  and  C_15
REMARK    3  A    between atoms: O_3  and  C_19
REMARK    4  A    between atoms: O_3  and  C_27
REMARK    5  A    between atoms: N_5  and  C_8
REMARK    6  A    between atoms: N_5  and  C_14
REMARK    7  A    between atoms: N_6  and  C_25
REMARK    8  A    between atoms: C_15  and  C_19
REMARK    9  A    between atoms: C_23  and  C_26
REMARK                            x       y       z     vdW  Elec       q    Type
REMARK                         _______ _______ _______ _____ _____    ______ ____
ROOT
ATOM      1  O   UNL     1      90.271  -3.063  21.174  0.00  0.00    +0.000 OA
ATOM      2  N   UNL     1      90.218  -4.249  23.180  0.00  0.00    +0.000 N 
ATOM      3  C   UNL     1      88.907  -1.966  24.279  0.00  0.00    +0.000 A 
ATOM      4  C   UNL     1      89.184  -3.151  25.124  0.00  0.00    +0.000 A 
ATOM      5  C   UNL     1      89.285  -1.995  22.993  0.00  0.00    +0.000 A 
ATOM      6  C   UNL     1      89.835  -4.271  24.560  0.00  0.00    +0.000 A 
ATOM      7  C   UNL     1      88.820  -3.202  26.484  0.00  0.00    +0.000 A 
ATOM      8  C   UNL     1      89.969  -3.149  22.365  0.00  0.00    +0.000 A 
ATOM      9  C   UNL     1      90.096  -5.396  25.368  0.00  0.00    +0.000 A 
ATOM     10  C   UNL     1      89.088  -4.324  27.269  0.00  0.00    +0.000 A 
ATOM     11  C   UNL     1      89.724  -5.421  26.711  0.00  0.00    +0.000 A 
ATOM     12  C   UNL     1      90.889  -5.416  22.611  0.00  0.00    +0.000 C 
ENDROOT
BRANCH  10  15
ATOM     13  S   UNL     1      87.098  -3.928  29.108  0.00  0.00    +0.000 S 
ATOM     14  N   UNL     1      88.750  -4.579  30.986  0.00  0.00    +0.000 NA
ATOM     15  C   UNL     1      88.700  -4.345  28.658  0.00  0.00    +0.000 A 
ATOM     16  C   UNL     1      89.429  -4.662  29.786  0.00  0.00    +0.000 A 
ATOM     17  C   UNL     1      87.514  -4.202  30.751  0.00  0.00    +0.000 A 
ENDBRANCH  10  15
BRANCH   3  18
ATOM     18  N   UNL     1      88.277  -0.873  24.811  0.00  0.00    +0.000 N 
ATOM     19  H   UNL     1      88.440  -0.639  25.781  0.00  0.00    +0.000 HD
BRANCH  18  20
ATOM     20  C   UNL     1      87.527   0.074  24.016  0.00  0.00    +0.000 C 
ATOM     21  C   UNL     1      86.065  -0.372  23.933  0.00  0.00    +0.000 C 
ATOM     22  C   UNL     1      87.653   1.469  24.632  0.00  0.00    +0.000 C 
ATOM     23  C   UNL     1      85.336   2.043  23.803  0.00  0.00    +0.000 C 
ATOM     24  C   UNL     1      85.211   0.650  23.189  0.00  0.00    +0.000 C 
ATOM     25  C   UNL     1      86.795   2.489  23.887  0.00  0.00    +0.000 C 
BRANCH  23  26
ATOM     26  O   UNL     1      84.601   2.961  23.000  0.00  0.00    +0.000 OA
BRANCH  26  27
ATOM     27  C   UNL     1      83.324   3.233  23.560  0.00  0.00    +0.000 C 
BRANCH  27  28
ATOM     28  C   UNL     1      83.498   4.120  24.778  0.00  0.00    +0.000 C 
BRANCH  28  29
ATOM     29  O   UNL     1      83.455   5.482  24.371  0.00  0.00    +0.000 OA
ATOM     30  C   UNL     1      82.131   5.891  24.057  0.00  0.00    +0.000 C 
ENDBRANCH  28  29
ENDBRANCH  27  28
ENDBRANCH  26  27
ENDBRANCH  23  26
ENDBRANCH  18  20
ENDBRANCH   3  18
TORSDOF 7
ENDMDL
MODEL 6
REMARK VINA RESULT:      -5.1      3.876      7.918
REMARK  Name = 118736856
REMARK  9 active torsions:
REMARK  status: ('A' for Active; 'I' for Inactive)
REMARK    1  A    between atoms: O_2  and  C_11
REMARK    2  A    between atoms: O_2  and  C_15
REMARK    3  A    between atoms: O_3  and  C_19
REMARK    4  A    between atoms: O_3  and  C_27
REMARK    5  A    between atoms: N_5  and  C_8
REMARK    6  A    between atoms: N_5  and  C_14
REMARK    7  A    between atoms: N_6  and  C_25
REMARK    8  A    between atoms: C_15  and  C_19
REMARK    9  A    between atoms: C_23  and  C_26
REMARK                            x       y       z     vdW  Elec       q    Type
REMARK                         _______ _______ _______ _____ _____    ______ ____
ROOT
ATOM      1  O   UNL     1      82.519   4.618  23.348  0.00  0.00    +0.000 OA
ATOM      2  N   UNL     1      84.351   3.520  24.281  0.00  0.00    +0.000 N 
ATOM      3  C   UNL     1      84.208   1.766  22.035  0.00  0.00    +0.000 A 
ATOM      4  C   UNL     1      85.247   1.573  23.073  0.00  0.00    +0.000 A 
ATOM      5  C   UNL     1      83.342   2.780  22.178  0.00  0.00    +0.000 A 
ATOM      6  C   UNL     1      85.301   2.452  24.177  0.00  0.00    +0.000 A 
ATOM      7  C   UNL     1      86.194   0.532  22.998  0.00  0.00    +0.000 A 
ATOM      8  C   UNL     1      83.365   3.723  23.320  0.00  0.00    +0.000 A 
ATOM      9  C   UNL     1      86.292   2.264  25.161  0.00  0.00    +0.000 A 
ATOM     10  C   UNL     1      87.168   0.361  23.983  0.00  0.00    +0.000 A 
ATOM     11  C   UNL     1      87.217   1.227  25.063  0.00  0.00    +0.000 A 
ATOM     12  C   UNL     1      84.419   4.422  25.429  0.00  0.00    +0.000 C 
ENDROOT
BRANCH  10  15
ATOM     13  S   UNL     1      88.956  -1.264  25.272  0.00  0.00    +0.000 S 
ATOM     14  N   UNL     1      89.478  -2.420  23.019  0.00  0.00    +0.000 NA
ATOM     15  C   UNL     1      88.124  -0.714  23.876  0.00  0.00    +0.000 A 
ATOM     16  C   UNL     1      88.529  -1.445  22.778  0.00  0.00    +0.000 A 
ATOM     17  C   UNL     1      89.778  -2.415  24.299  0.00  0.00    +0.000 A 
ENDBRANCH  10  15
BRANCH   3  18
ATOM     18  N   UNL     1      84.144   0.923  20.959  0.00  0.00    +0.000 N 
ATOM     19  H   UNL     1      83.626   0.058  21.045  0.00  0.00    +0.000 HD
BRANCH  18  20
ATOM     20  C   UNL     1      84.625   1.279  19.642  0.00  0.00    +0.000 C 
ATOM     21  C   UNL     1      83.607   0.837  18.588  0.00  0.00    +0.000 C 
ATOM     22  C   UNL     1      84.875   2.788  19.582  0.00  0.00    +0.000 C 
ATOM     23  C   UNL     1      84.272   2.788  17.128  0.00  0.00    +0.000 C 
ATOM     24  C   UNL     1      84.024   1.282  17.190  0.00  0.00    +0.000 C 
ATOM     25  C   UNL     1      85.287   3.230  18.181  0.00  0.00    +0.000 C 
BRANCH  23  26
ATOM     26  O   UNL     1      84.755   3.116  15.830  0.00  0.00    +0.000 OA
BRANCH  26  27
ATOM     27  C   UNL     1      84.556   4.490  15.533  0.00  0.00    +0.000 C 
BRANCH  27  28
ATOM     28  C   UNL     1      83.077   4.807  15.631  0.00  0.00    +0.000 C 
BRANCH  28  29
ATOM     29  O   UNL     1      82.917   6.149  16.075  0.00  0.00    +0.000 OA
ATOM     30  C   UNL     1      84.096   6.636  16.699  0.00  0.00    +0.000 C 
ENDBRANCH  28  29
ENDBRANCH  27  28
ENDBRANCH  26  27
ENDBRANCH  23  26
ENDBRANCH  18  20
ENDBRANCH   3  18
TORSDOF 7
ENDMDL
MODEL 7
REMARK VINA RESULT:      -5.1      3.535      8.107
REMARK  Name = 118736856
REMARK  9 active torsions:
REMARK  status: ('A' for Active; 'I' for Inactive)
REMARK    1  A    between atoms: O_2  and  C_11
REMARK    2  A    between atoms: O_2  and  C_15
REMARK    3  A    between atoms: O_3  and  C_19
REMARK    4  A    between atoms: O_3  and  C_27
REMARK    5  A    between atoms: N_5  and  C_8
REMARK    6  A    between atoms: N_5  and  C_14
REMARK    7  A    between atoms: N_6  and  C_25
REMARK    8  A    between atoms: C_15  and  C_19
REMARK    9  A    between atoms: C_23  and  C_26
REMARK                            x       y       z     vdW  Elec       q    Type
REMARK                         _______ _______ _______ _____ _____    ______ ____
ROOT
ATOM      1  O   UNL     1      89.027  -2.526  26.848  0.00  0.00    +0.000 OA
ATOM      2  N   UNL     1      89.817  -3.706  25.000  0.00  0.00    +0.000 N 
ATOM      3  C   UNL     1      88.799  -1.556  23.426  0.00  0.00    +0.000 A 
ATOM      4  C   UNL     1      89.471  -2.707  22.778  0.00  0.00    +0.000 A 
ATOM      5  C   UNL     1      88.683  -1.551  24.761  0.00  0.00    +0.000 A 
ATOM      6  C   UNL     1      89.968  -3.761  23.576  0.00  0.00    +0.000 A 
ATOM      7  C   UNL     1      89.633  -2.790  21.381  0.00  0.00    +0.000 A 
ATOM      8  C   UNL     1      89.190  -2.637  25.632  0.00  0.00    +0.000 A 
ATOM      9  C   UNL     1      90.606  -4.854  22.955  0.00  0.00    +0.000 A 
ATOM     10  C   UNL     1      90.267  -3.880  20.784  0.00  0.00    +0.000 A 
ATOM     11  C   UNL     1      90.755  -4.911  21.571  0.00  0.00    +0.000 A 
ATOM     12  C   UNL     1      90.337  -4.804  25.812  0.00  0.00    +0.000 C 
ENDROOT
BRANCH  10  15
ATOM     13  S   UNL     1      89.032  -3.918  18.341  0.00  0.00    +0.000 S 
ATOM     14  N   UNL     1      91.352  -4.038  17.207  0.00  0.00    +0.000 NA
ATOM     15  C   UNL     1      90.419  -3.933  19.351  0.00  0.00    +0.000 A 
ATOM     16  C   UNL     1      91.556  -3.998  18.573  0.00  0.00    +0.000 A 
ATOM     17  C   UNL     1      90.060  -4.001  16.969  0.00  0.00    +0.000 A 
ENDBRANCH  10  15
BRANCH   3  18
ATOM     18  N   UNL     1      88.313  -0.526  22.665  0.00  0.00    +0.000 N 
ATOM     19  H   UNL     1      88.823  -0.245  21.838  0.00  0.00    +0.000 HD
BRANCH  18  20
ATOM     20  C   UNL     1      87.012   0.070  22.877  0.00  0.00    +0.000 C 
ATOM     21  C   UNL     1      86.978   1.463  22.243  0.00  0.00    +0.000 C 
ATOM     22  C   UNL     1      85.932  -0.841  22.288  0.00  0.00    +0.000 C 
ATOM     23  C   UNL     1      84.514   1.184  21.763  0.00  0.00    +0.000 C 
ATOM     24  C   UNL     1      85.592   2.091  22.352  0.00  0.00    +0.000 C 
ATOM     25  C   UNL     1      84.548  -0.207  22.395  0.00  0.00    +0.000 C 
BRANCH  23  26
ATOM     26  O   UNL     1      83.242   1.782  21.991  0.00  0.00    +0.000 OA
BRANCH  26  27
ATOM     27  C   UNL     1      83.274   3.180  21.742  0.00  0.00    +0.000 C 
BRANCH  27  28
ATOM     28  C   UNL     1      82.309   3.504  20.618  0.00  0.00    +0.000 C 
BRANCH  28  29
ATOM     29  O   UNL     1      83.046   3.727  19.422  0.00  0.00    +0.000 OA
ATOM     30  C   UNL     1      82.213   3.650  18.275  0.00  0.00    +0.000 C 
ENDBRANCH  28  29
ENDBRANCH  27  28
ENDBRANCH  26  27
ENDBRANCH  23  26
ENDBRANCH  18  20
ENDBRANCH   3  18
TORSDOF 7
ENDMDL
MODEL 8
REMARK VINA RESULT:      -5.0      3.661      7.767
REMARK  Name = 118736856
REMARK  9 active torsions:
REMARK  status: ('A' for Active; 'I' for Inactive)
REMARK    1  A    between atoms: O_2  and  C_11
REMARK    2  A    between atoms: O_2  and  C_15
REMARK    3  A    between atoms: O_3  and  C_19
REMARK    4  A    between atoms: O_3  and  C_27
REMARK    5  A    between atoms: N_5  and  C_8
REMARK    6  A    between atoms: N_5  and  C_14
REMARK    7  A    between atoms: N_6  and  C_25
REMARK    8  A    between atoms: C_15  and  C_19
REMARK    9  A    between atoms: C_23  and  C_26
REMARK                            x       y       z     vdW  Elec       q    Type
REMARK                         _______ _______ _______ _____ _____    ______ ____
ROOT
ATOM      1  O   UNL     1      84.655   2.245  18.874  0.00  0.00    +0.000 OA
ATOM      2  N   UNL     1      85.277   0.277  19.957  0.00  0.00    +0.000 N 
ATOM      3  C   UNL     1      86.108   1.946  22.116  0.00  0.00    +0.000 A 
ATOM      4  C   UNL     1      86.255   0.475  22.206  0.00  0.00    +0.000 A 
ATOM      5  C   UNL     1      85.577   2.469  21.001  0.00  0.00    +0.000 A 
ATOM      6  C   UNL     1      85.837  -0.334  21.125  0.00  0.00    +0.000 A 
ATOM      7  C   UNL     1      86.803  -0.154  23.341  0.00  0.00    +0.000 A 
ATOM      8  C   UNL     1      85.127   1.656  19.847  0.00  0.00    +0.000 A 
ATOM      9  C   UNL     1      85.980  -1.733  21.217  0.00  0.00    +0.000 A 
ATOM     10  C   UNL     1      86.937  -1.541  23.413  0.00  0.00    +0.000 A 
ATOM     11  C   UNL     1      86.524  -2.331  22.351  0.00  0.00    +0.000 A 
ATOM     12  C   UNL     1      84.848  -0.574  18.848  0.00  0.00    +0.000 C 
ENDROOT
BRANCH  10  15
ATOM     13  S   UNL     1      88.854  -1.438  25.366  0.00  0.00    +0.000 S 
ATOM     14  N   UNL     1      87.892  -3.613  26.378  0.00  0.00    +0.000 NA
ATOM     15  C   UNL     1      87.501  -2.154  24.591  0.00  0.00    +0.000 A 
ATOM     16  C   UNL     1      87.131  -3.297  25.269  0.00  0.00    +0.000 A 
ATOM     17  C   UNL     1      88.829  -2.704  26.525  0.00  0.00    +0.000 A 
ENDBRANCH  10  15
BRANCH   3  18
ATOM     18  N   UNL     1      86.507   2.743  23.155  0.00  0.00    +0.000 N 
ATOM     19  H   UNL     1      87.488   2.971  23.248  0.00  0.00    +0.000 HD
BRANCH  18  20
ATOM     20  C   UNL     1      85.581   3.429  24.029  0.00  0.00    +0.000 C 
ATOM     21  C   UNL     1      84.146   3.065  23.640  0.00  0.00    +0.000 C 
ATOM     22  C   UNL     1      85.880   3.055  25.483  0.00  0.00    +0.000 C 
ATOM     23  C   UNL     1      83.431   3.312  26.050  0.00  0.00    +0.000 C 
ATOM     24  C   UNL     1      83.135   3.685  24.599  0.00  0.00    +0.000 C 
ATOM     25  C   UNL     1      84.864   3.674  26.439  0.00  0.00    +0.000 C 
BRANCH  23  26
ATOM     26  O   UNL     1      82.517   4.005  26.893  0.00  0.00    +0.000 OA
BRANCH  26  27
ATOM     27  C   UNL     1      82.017   3.162  27.921  0.00  0.00    +0.000 C 
BRANCH  27  28
ATOM     28  C   UNL     1      82.386   3.753  29.268  0.00  0.00    +0.000 C 
BRANCH  28  29
ATOM     29  O   UNL     1      83.652   3.242  29.668  0.00  0.00    +0.000 OA
ATOM     30  C   UNL     1      84.382   4.195  30.428  0.00  0.00    +0.000 C 
ENDBRANCH  28  29
ENDBRANCH  27  28
ENDBRANCH  26  27
ENDBRANCH  23  26
ENDBRANCH  18  20
ENDBRANCH   3  18
TORSDOF 7
ENDMDL
MODEL 9
REMARK VINA RESULT:      -5.0      3.212      5.631
REMARK  Name = 118736856
REMARK  9 active torsions:
REMARK  status: ('A' for Active; 'I' for Inactive)
REMARK    1  A    between atoms: O_2  and  C_11
REMARK    2  A    between atoms: O_2  and  C_15
REMARK    3  A    between atoms: O_3  and  C_19
REMARK    4  A    between atoms: O_3  and  C_27
REMARK    5  A    between atoms: N_5  and  C_8
REMARK    6  A    between atoms: N_5  and  C_14
REMARK    7  A    between atoms: N_6  and  C_25
REMARK    8  A    between atoms: C_15  and  C_19
REMARK    9  A    between atoms: C_23  and  C_26
REMARK                            x       y       z     vdW  Elec       q    Type
REMARK                         _______ _______ _______ _____ _____    ______ ____
ROOT
ATOM      1  O   UNL     1      83.041   5.061  18.066  0.00  0.00    +0.000 OA
ATOM      2  N   UNL     1      84.046   3.240  17.014  0.00  0.00    +0.000 N 
ATOM      3  C   UNL     1      83.889   1.929  19.543  0.00  0.00    +0.000 A 
ATOM      4  C   UNL     1      84.478   1.236  18.373  0.00  0.00    +0.000 A 
ATOM      5  C   UNL     1      83.435   3.181  19.382  0.00  0.00    +0.000 A 
ATOM      6  C   UNL     1      84.546   1.902  17.130  0.00  0.00    +0.000 A 
ATOM      7  C   UNL     1      84.978  -0.079  18.458  0.00  0.00    +0.000 A 
ATOM      8  C   UNL     1      83.488   3.914  18.096  0.00  0.00    +0.000 A 
ATOM      9  C   UNL     1      85.107   1.237  16.021  0.00  0.00    +0.000 A 
ATOM     10  C   UNL     1      85.531  -0.721  17.348  0.00  0.00    +0.000 A 
ATOM     11  C   UNL     1      85.594  -0.063  16.130  0.00  0.00    +0.000 A 
ATOM     12  C   UNL     1      84.123   3.916  15.720  0.00  0.00    +0.000 C 
ENDROOT
BRANCH  10  15
ATOM     13  S   UNL     1      86.045  -2.846  18.997  0.00  0.00    +0.000 S 
ATOM     14  N   UNL     1      86.946  -4.163  16.962  0.00  0.00    +0.000 NA
ATOM     15  C   UNL     1      86.033  -2.068  17.468  0.00  0.00    +0.000 A 
ATOM     16  C   UNL     1      86.545  -2.920  16.511  0.00  0.00    +0.000 A 
ATOM     17  C   UNL     1      86.728  -4.236  18.256  0.00  0.00    +0.000 A 
ENDBRANCH  10  15
BRANCH   3  18
ATOM     18  N   UNL     1      83.815   1.296  20.754  0.00  0.00    +0.000 N 
ATOM     19  H   UNL     1      83.334   0.408  20.813  0.00  0.00    +0.000 HD
BRANCH  18  20
ATOM     20  C   UNL     1      84.542   1.736  21.925  0.00  0.00    +0.000 C 
ATOM     21  C   UNL     1      84.302   0.755  23.075  0.00  0.00    +0.000 C 
ATOM     22  C   UNL     1      86.030   1.851  21.587  0.00  0.00    +0.000 C 
ATOM     23  C   UNL     1      86.615   1.236  23.967  0.00  0.00    +0.000 C 
ATOM     24  C   UNL     1      85.130   1.123  24.302  0.00  0.00    +0.000 C 
ATOM     25  C   UNL     1      86.856   2.214  22.818  0.00  0.00    +0.000 C 
BRANCH  23  26
ATOM     26  O   UNL     1      87.310   1.681  25.128  0.00  0.00    +0.000 OA
BRANCH  26  27
ATOM     27  C   UNL     1      88.651   1.214  25.141  0.00  0.00    +0.000 C 
BRANCH  27  28
ATOM     28  C   UNL     1      88.656  -0.283  24.897  0.00  0.00    +0.000 C 
BRANCH  28  29
ATOM     29  O   UNL     1      89.209  -0.937  26.032  0.00  0.00    +0.000 OA
ATOM     30  C   UNL     1      88.967  -2.337  25.996  0.00  0.00    +0.000 C 
ENDBRANCH  28  29
ENDBRANCH  27  28
ENDBRANCH  26  27
ENDBRANCH  23  26
ENDBRANCH  18  20
ENDBRANCH   3  18
TORSDOF 7
ENDMDL
