MODEL 1
REMARK VINA RESULT:      -7.9      0.000      0.000
REMARK  Name = 5280443
REMARK  4 active torsions:
REMARK  status: ('A' for Active; 'I' for Inactive)
REMARK    1  A    between atoms: O_2  and  C_12
REMARK    2  A    between atoms: O_4  and  C_14
REMARK    3  A    between atoms: O_5  and  C_20
REMARK    4  A    between atoms: C_8  and  C_9
REMARK                            x       y       z     vdW  Elec       q    Type
REMARK                         _______ _______ _______ _____ _____    ______ ____
ROOT
ATOM      1  O   UNL     1      93.963  -0.015  26.867  0.00  0.00    +0.000 OA
ATOM      2  O   UNL     1      90.185  -0.599  25.460  0.00  0.00    +0.000 OA
ATOM      3  C   UNL     1      92.060  -1.497  26.583  0.00  0.00    +0.000 A 
ATOM      4  C   UNL     1      93.349  -1.230  27.040  0.00  0.00    +0.000 A 
ATOM      5  C   UNL     1      93.271   0.986  26.201  0.00  0.00    +0.000 A 
ATOM      6  C   UNL     1      91.319  -0.435  25.884  0.00  0.00    +0.000 A 
ATOM      7  C   UNL     1      92.024   0.853  25.722  0.00  0.00    +0.000 A 
ATOM      8  C   UNL     1      91.485  -2.753  26.788  0.00  0.00    +0.000 A 
ATOM      9  C   UNL     1      94.072  -2.219  27.707  0.00  0.00    +0.000 A 
ATOM     10  C   UNL     1      93.501  -3.475  27.913  0.00  0.00    +0.000 A 
ATOM     11  C   UNL     1      92.209  -3.742  27.454  0.00  0.00    +0.000 A 
ENDROOT
BRANCH   5  12
ATOM     12  C   UNL     1      94.021   2.251  26.076  0.00  0.00    +0.000 A 
ATOM     13  C   UNL     1      93.815   3.082  24.971  0.00  0.00    +0.000 A 
ATOM     14  C   UNL     1      94.938   2.624  27.061  0.00  0.00    +0.000 A 
ATOM     15  C   UNL     1      94.523   4.279  24.853  0.00  0.00    +0.000 A 
ATOM     16  C   UNL     1      95.645   3.821  26.942  0.00  0.00    +0.000 A 
ATOM     17  C   UNL     1      95.438   4.648  25.839  0.00  0.00    +0.000 A 
BRANCH  17  18
ATOM     18  O   UNL     1      96.128   5.815  25.724  0.00  0.00    +0.000 OA
ATOM     19  H   UNL     1      97.007   5.626  25.352  0.00  0.00    +0.000 HD
ENDBRANCH  17  18
ENDBRANCH   5  12
BRANCH   8  20
ATOM     20  O   UNL     1      90.229  -3.064  26.361  0.00  0.00    +0.000 OA
ATOM     21  H   UNL     1      89.763  -3.591  27.029  0.00  0.00    +0.000 HD
ENDBRANCH   8  20
BRANCH  10  22
ATOM     22  O   UNL     1      94.204  -4.443  28.564  0.00  0.00    +0.000 OA
ATOM     23  H   UNL     1      93.966  -4.426  29.507  0.00  0.00    +0.000 HD
ENDBRANCH  10  22
TORSDOF 4
ENDMDL
MODEL 2
REMARK VINA RESULT:      -7.8      1.426      2.879
REMARK  Name = 5280443
REMARK  4 active torsions:
REMARK  status: ('A' for Active; 'I' for Inactive)
REMARK    1  A    between atoms: O_2  and  C_12
REMARK    2  A    between atoms: O_4  and  C_14
REMARK    3  A    between atoms: O_5  and  C_20
REMARK    4  A    between atoms: C_8  and  C_9
REMARK                            x       y       z     vdW  Elec       q    Type
REMARK                         _______ _______ _______ _____ _____    ______ ____
ROOT
ATOM      1  O   UNL     1      92.309   1.450  26.494  0.00  0.00    +0.000 OA
ATOM      2  O   UNL     1      94.393  -1.912  27.472  0.00  0.00    +0.000 OA
ATOM      3  C   UNL     1      92.297  -0.924  27.008  0.00  0.00    +0.000 A 
ATOM      4  C   UNL     1      91.647   0.261  26.672  0.00  0.00    +0.000 A 
ATOM      5  C   UNL     1      93.685   1.471  26.665  0.00  0.00    +0.000 A 
ATOM      6  C   UNL     1      93.758  -0.909  27.180  0.00  0.00    +0.000 A 
ATOM      7  C   UNL     1      94.424   0.395  26.981  0.00  0.00    +0.000 A 
ATOM      8  C   UNL     1      91.571  -2.105  27.175  0.00  0.00    +0.000 A 
ATOM      9  C   UNL     1      90.262   0.273  26.501  0.00  0.00    +0.000 A 
ATOM     10  C   UNL     1      89.533  -0.904  26.667  0.00  0.00    +0.000 A 
ATOM     11  C   UNL     1      90.186  -2.092  27.005  0.00  0.00    +0.000 A 
ENDROOT
BRANCH   5  12
ATOM     12  C   UNL     1      94.297   2.796  26.445  0.00  0.00    +0.000 A 
ATOM     13  C   UNL     1      94.102   3.466  25.234  0.00  0.00    +0.000 A 
ATOM     14  C   UNL     1      95.071   3.387  27.445  0.00  0.00    +0.000 A 
ATOM     15  C   UNL     1      94.678   4.719  25.026  0.00  0.00    +0.000 A 
ATOM     16  C   UNL     1      95.648   4.640  27.237  0.00  0.00    +0.000 A 
ATOM     17  C   UNL     1      95.452   5.306  26.027  0.00  0.00    +0.000 A 
BRANCH  17  18
ATOM     18  O   UNL     1      96.014   6.528  25.825  0.00  0.00    +0.000 OA
ATOM     19  H   UNL     1      96.914   6.407  25.474  0.00  0.00    +0.000 HD
ENDBRANCH  17  18
ENDBRANCH   5  12
BRANCH   8  20
ATOM     20  O   UNL     1      92.160  -3.289  27.503  0.00  0.00    +0.000 OA
ATOM     21  H   UNL     1      92.413  -3.776  26.703  0.00  0.00    +0.000 HD
ENDBRANCH   8  20
BRANCH  10  22
ATOM     22  O   UNL     1      88.181  -0.896  26.501  0.00  0.00    +0.000 OA
ATOM     23  H   UNL     1      87.817  -0.094  26.914  0.00  0.00    +0.000 HD
ENDBRANCH  10  22
TORSDOF 4
ENDMDL
MODEL 3
REMARK VINA RESULT:      -7.2      4.024      4.450
REMARK  Name = 5280443
REMARK  4 active torsions:
REMARK  status: ('A' for Active; 'I' for Inactive)
REMARK    1  A    between atoms: O_2  and  C_12
REMARK    2  A    between atoms: O_4  and  C_14
REMARK    3  A    between atoms: O_5  and  C_20
REMARK    4  A    between atoms: C_8  and  C_9
REMARK                            x       y       z     vdW  Elec       q    Type
REMARK                         _______ _______ _______ _____ _____    ______ ____
ROOT
ATOM      1  O   UNL     1      91.652   1.750  28.221  0.00  0.00    +0.000 OA
ATOM      2  O   UNL     1      88.377  -0.371  27.051  0.00  0.00    +0.000 OA
ATOM      3  C   UNL     1      90.732  -0.253  27.201  0.00  0.00    +0.000 A 
ATOM      4  C   UNL     1      91.808   0.524  27.625  0.00  0.00    +0.000 A 
ATOM      5  C   UNL     1      90.367   2.239  28.399  0.00  0.00    +0.000 A 
ATOM      6  C   UNL     1      89.366   0.257  27.397  0.00  0.00    +0.000 A 
ATOM      7  C   UNL     1      89.252   1.583  28.040  0.00  0.00    +0.000 A 
ATOM      8  C   UNL     1      90.951  -1.495  26.601  0.00  0.00    +0.000 A 
ATOM      9  C   UNL     1      93.113   0.062  27.453  0.00  0.00    +0.000 A 
ATOM     10  C   UNL     1      93.336  -1.178  26.854  0.00  0.00    +0.000 A 
ATOM     11  C   UNL     1      92.257  -1.955  26.428  0.00  0.00    +0.000 A 
ENDROOT
BRANCH   5  12
ATOM     12  C   UNL     1      90.314   3.561  29.053  0.00  0.00    +0.000 A 
ATOM     13  C   UNL     1      91.039   3.793  30.226  0.00  0.00    +0.000 A 
ATOM     14  C   UNL     1      89.540   4.586  28.504  0.00  0.00    +0.000 A 
ATOM     15  C   UNL     1      90.990   5.043  30.843  0.00  0.00    +0.000 A 
ATOM     16  C   UNL     1      89.491   5.835  29.122  0.00  0.00    +0.000 A 
ATOM     17  C   UNL     1      90.215   6.064  30.292  0.00  0.00    +0.000 A 
BRANCH  17  18
ATOM     18  O   UNL     1      90.168   7.283  30.894  0.00  0.00    +0.000 OA
ATOM     19  H   UNL     1      90.548   7.208  31.787  0.00  0.00    +0.000 HD
ENDBRANCH  17  18
ENDBRANCH   5  12
BRANCH   8  20
ATOM     20  O   UNL     1      89.933  -2.292  26.169  0.00  0.00    +0.000 OA
ATOM     21  H   UNL     1      89.698  -2.941  26.850  0.00  0.00    +0.000 HD
ENDBRANCH   8  20
BRANCH  10  22
ATOM     22  O   UNL     1      94.609  -1.632  26.684  0.00  0.00    +0.000 OA
ATOM     23  H   UNL     1      95.226  -1.005  27.098  0.00  0.00    +0.000 HD
ENDBRANCH  10  22
TORSDOF 4
ENDMDL
MODEL 4
REMARK VINA RESULT:      -7.0      2.540      7.156
REMARK  Name = 5280443
REMARK  4 active torsions:
REMARK  status: ('A' for Active; 'I' for Inactive)
REMARK    1  A    between atoms: O_2  and  C_12
REMARK    2  A    between atoms: O_4  and  C_14
REMARK    3  A    between atoms: O_5  and  C_20
REMARK    4  A    between atoms: C_8  and  C_9
REMARK                            x       y       z     vdW  Elec       q    Type
REMARK                         _______ _______ _______ _____ _____    ______ ____
ROOT
ATOM      1  O   UNL     1      92.995   2.345  26.589  0.00  0.00    +0.000 OA
ATOM      2  O   UNL     1      91.377   4.677  29.511  0.00  0.00    +0.000 OA
ATOM      3  C   UNL     1      93.000   4.444  27.810  0.00  0.00    +0.000 A 
ATOM      4  C   UNL     1      93.505   3.596  26.826  0.00  0.00    +0.000 A 
ATOM      5  C   UNL     1      91.936   1.904  27.369  0.00  0.00    +0.000 A 
ATOM      6  C   UNL     1      91.871   3.985  28.633  0.00  0.00    +0.000 A 
ATOM      7  C   UNL     1      91.360   2.630  28.340  0.00  0.00    +0.000 A 
ATOM      8  C   UNL     1      93.559   5.709  28.006  0.00  0.00    +0.000 A 
ATOM      9  C   UNL     1      94.574   4.009  26.031  0.00  0.00    +0.000 A 
ATOM     10  C   UNL     1      95.135   5.271  26.223  0.00  0.00    +0.000 A 
ATOM     11  C   UNL     1      94.629   6.120  27.210  0.00  0.00    +0.000 A 
ENDROOT
BRANCH   5  12
ATOM     12  C   UNL     1      91.463   0.549  27.027  0.00  0.00    +0.000 A 
ATOM     13  C   UNL     1      90.103   0.237  27.118  0.00  0.00    +0.000 A 
ATOM     14  C   UNL     1      92.370  -0.428  26.609  0.00  0.00    +0.000 A 
ATOM     15  C   UNL     1      89.655  -1.044  26.793  0.00  0.00    +0.000 A 
ATOM     16  C   UNL     1      91.921  -1.708  26.284  0.00  0.00    +0.000 A 
ATOM     17  C   UNL     1      90.564  -2.017  26.377  0.00  0.00    +0.000 A 
BRANCH  17  18
ATOM     18  O   UNL     1      90.127  -3.265  26.060  0.00  0.00    +0.000 OA
ATOM     19  H   UNL     1      90.870  -3.774  25.691  0.00  0.00    +0.000 HD
ENDBRANCH  17  18
ENDBRANCH   5  12
BRANCH   8  20
ATOM     20  O   UNL     1      93.101   6.575  28.953  0.00  0.00    +0.000 OA
ATOM     21  H   UNL     1      93.506   6.382  29.813  0.00  0.00    +0.000 HD
ENDBRANCH   8  20
BRANCH  10  22
ATOM     22  O   UNL     1      96.178   5.677  25.448  0.00  0.00    +0.000 OA
ATOM     23  H   UNL     1      95.951   5.536  24.513  0.00  0.00    +0.000 HD
ENDBRANCH  10  22
TORSDOF 4
ENDMDL
MODEL 5
REMARK VINA RESULT:      -7.0      3.432      5.204
REMARK  Name = 5280443
REMARK  4 active torsions:
REMARK  status: ('A' for Active; 'I' for Inactive)
REMARK    1  A    between atoms: O_2  and  C_12
REMARK    2  A    between atoms: O_4  and  C_14
REMARK    3  A    between atoms: O_5  and  C_20
REMARK    4  A    between atoms: C_8  and  C_9
REMARK                            x       y       z     vdW  Elec       q    Type
REMARK                         _______ _______ _______ _____ _____    ______ ____
ROOT
ATOM      1  O   UNL     1      93.064   0.158  28.178  0.00  0.00    +0.000 OA
ATOM      2  O   UNL     1      90.458  -2.263  26.193  0.00  0.00    +0.000 OA
ATOM      3  C   UNL     1      90.806  -0.251  27.381  0.00  0.00    +0.000 A 
ATOM      4  C   UNL     1      91.750   0.529  28.046  0.00  0.00    +0.000 A 
ATOM      5  C   UNL     1      93.466  -1.052  27.632  0.00  0.00    +0.000 A 
ATOM      6  C   UNL     1      91.231  -1.530  26.791  0.00  0.00    +0.000 A 
ATOM      7  C   UNL     1      92.654  -1.886  26.963  0.00  0.00    +0.000 A 
ATOM      8  C   UNL     1      89.482   0.179  27.277  0.00  0.00    +0.000 A 
ATOM      9  C   UNL     1      91.374   1.747  28.612  0.00  0.00    +0.000 A 
ATOM     10  C   UNL     1      90.051   2.180  28.511  0.00  0.00    +0.000 A 
ATOM     11  C   UNL     1      89.107   1.397  27.845  0.00  0.00    +0.000 A 
ENDROOT
BRANCH   5  12
ATOM     12  C   UNL     1      94.899  -1.351  27.826  0.00  0.00    +0.000 A 
ATOM     13  C   UNL     1      95.630  -0.673  28.806  0.00  0.00    +0.000 A 
ATOM     14  C   UNL     1      95.529  -2.312  27.033  0.00  0.00    +0.000 A 
ATOM     15  C   UNL     1      96.984  -0.956  28.990  0.00  0.00    +0.000 A 
ATOM     16  C   UNL     1      96.883  -2.595  27.218  0.00  0.00    +0.000 A 
ATOM     17  C   UNL     1      97.610  -1.916  28.196  0.00  0.00    +0.000 A 
BRANCH  17  18
ATOM     18  O   UNL     1      98.930  -2.193  28.376  0.00  0.00    +0.000 OA
ATOM     19  H   UNL     1      99.268  -1.650  29.109  0.00  0.00    +0.000 HD
ENDBRANCH  17  18
ENDBRANCH   5  12
BRANCH   8  20
ATOM     20  O   UNL     1      88.522  -0.547  26.637  0.00  0.00    +0.000 OA
ATOM     21  H   UNL     1      87.691  -0.049  26.595  0.00  0.00    +0.000 HD
ENDBRANCH   8  20
BRANCH  10  22
ATOM     22  O   UNL     1      89.681   3.369  29.062  0.00  0.00    +0.000 OA
ATOM     23  H   UNL     1      89.008   3.204  29.745  0.00  0.00    +0.000 HD
ENDBRANCH  10  22
TORSDOF 4
ENDMDL
MODEL 6
REMARK VINA RESULT:      -6.9      2.138      7.128
REMARK  Name = 5280443
REMARK  4 active torsions:
REMARK  status: ('A' for Active; 'I' for Inactive)
REMARK    1  A    between atoms: O_2  and  C_12
REMARK    2  A    between atoms: O_4  and  C_14
REMARK    3  A    between atoms: O_5  and  C_20
REMARK    4  A    between atoms: C_8  and  C_9
REMARK                            x       y       z     vdW  Elec       q    Type
REMARK                         _______ _______ _______ _____ _____    ______ ____
ROOT
ATOM      1  O   UNL     1      92.564   2.597  27.377  0.00  0.00    +0.000 OA
ATOM      2  O   UNL     1      95.006   3.940  24.406  0.00  0.00    +0.000 OA
ATOM      3  C   UNL     1      94.008   4.347  26.509  0.00  0.00    +0.000 A 
ATOM      4  C   UNL     1      93.163   3.827  27.487  0.00  0.00    +0.000 A 
ATOM      5  C   UNL     1      92.805   1.845  26.237  0.00  0.00    +0.000 A 
ATOM      6  C   UNL     1      94.274   3.548  25.302  0.00  0.00    +0.000 A 
ATOM      7  C   UNL     1      93.603   2.233  25.230  0.00  0.00    +0.000 A 
ATOM      8  C   UNL     1      94.592   5.604  26.675  0.00  0.00    +0.000 A 
ATOM      9  C   UNL     1      92.897   4.563  28.641  0.00  0.00    +0.000 A 
ATOM     10  C   UNL     1      93.477   5.820  28.812  0.00  0.00    +0.000 A 
ATOM     11  C   UNL     1      94.323   6.340  27.830  0.00  0.00    +0.000 A 
ENDROOT
BRANCH   5  12
ATOM     12  C   UNL     1      92.116   0.540  26.224  0.00  0.00    +0.000 A 
ATOM     13  C   UNL     1      90.740   0.475  25.989  0.00  0.00    +0.000 A 
ATOM     14  C   UNL     1      92.836  -0.636  26.445  0.00  0.00    +0.000 A 
ATOM     15  C   UNL     1      90.089  -0.759  25.975  0.00  0.00    +0.000 A 
ATOM     16  C   UNL     1      92.185  -1.870  26.432  0.00  0.00    +0.000 A 
ATOM     17  C   UNL     1      90.812  -1.932  26.198  0.00  0.00    +0.000 A 
BRANCH  17  18
ATOM     18  O   UNL     1      90.177  -3.135  26.184  0.00  0.00    +0.000 OA
ATOM     19  H   UNL     1      89.640  -3.217  26.991  0.00  0.00    +0.000 HD
ENDBRANCH  17  18
ENDBRANCH   5  12
BRANCH   8  20
ATOM     20  O   UNL     1      95.424   6.156  25.749  0.00  0.00    +0.000 OA
ATOM     21  H   UNL     1      95.914   6.900  26.132  0.00  0.00    +0.000 HD
ENDBRANCH   8  20
BRANCH  10  22
ATOM     22  O   UNL     1      93.219   6.542  29.937  0.00  0.00    +0.000 OA
ATOM     23  H   UNL     1      92.580   7.244  29.723  0.00  0.00    +0.000 HD
ENDBRANCH  10  22
TORSDOF 4
ENDMDL
MODEL 7
REMARK VINA RESULT:      -6.9      1.729      6.833
REMARK  Name = 5280443
REMARK  4 active torsions:
REMARK  status: ('A' for Active; 'I' for Inactive)
REMARK    1  A    between atoms: O_2  and  C_12
REMARK    2  A    between atoms: O_4  and  C_14
REMARK    3  A    between atoms: O_5  and  C_20
REMARK    4  A    between atoms: C_8  and  C_9
REMARK                            x       y       z     vdW  Elec       q    Type
REMARK                         _______ _______ _______ _____ _____    ______ ____
ROOT
ATOM      1  O   UNL     1      93.554   1.985  27.597  0.00  0.00    +0.000 OA
ATOM      2  O   UNL     1      94.652   4.091  24.287  0.00  0.00    +0.000 OA
ATOM      3  C   UNL     1      94.710   3.896  26.642  0.00  0.00    +0.000 A 
ATOM      4  C   UNL     1      94.302   3.128  27.730  0.00  0.00    +0.000 A 
ATOM      5  C   UNL     1      93.183   1.583  26.323  0.00  0.00    +0.000 A 
ATOM      6  C   UNL     1      94.327   3.467  25.287  0.00  0.00    +0.000 A 
ATOM      7  C   UNL     1      93.521   2.233  25.198  0.00  0.00    +0.000 A 
ATOM      8  C   UNL     1      95.471   5.050  26.837  0.00  0.00    +0.000 A 
ATOM      9  C   UNL     1      94.653   3.511  29.025  0.00  0.00    +0.000 A 
ATOM     10  C   UNL     1      95.413   4.664  29.225  0.00  0.00    +0.000 A 
ATOM     11  C   UNL     1      95.821   5.432  28.132  0.00  0.00    +0.000 A 
ENDROOT
BRANCH   5  12
ATOM     12  C   UNL     1      92.387   0.341  26.294  0.00  0.00    +0.000 A 
ATOM     13  C   UNL     1      91.045   0.376  25.906  0.00  0.00    +0.000 A 
ATOM     14  C   UNL     1      92.971  -0.876  26.654  0.00  0.00    +0.000 A 
ATOM     15  C   UNL     1      90.293  -0.799  25.878  0.00  0.00    +0.000 A 
ATOM     16  C   UNL     1      92.219  -2.050  26.626  0.00  0.00    +0.000 A 
ATOM     17  C   UNL     1      90.879  -2.012  26.238  0.00  0.00    +0.000 A 
BRANCH  17  18
ATOM     18  O   UNL     1      90.146  -3.157  26.210  0.00  0.00    +0.000 OA
ATOM     19  H   UNL     1      89.350  -3.008  25.671  0.00  0.00    +0.000 HD
ENDBRANCH  17  18
ENDBRANCH   5  12
BRANCH   8  20
ATOM     20  O   UNL     1      95.895   5.834  25.806  0.00  0.00    +0.000 OA
ATOM     21  H   UNL     1      96.519   5.348  25.245  0.00  0.00    +0.000 HD
ENDBRANCH   8  20
BRANCH  10  22
ATOM     22  O   UNL     1      95.758   5.040  30.487  0.00  0.00    +0.000 OA
ATOM     23  H   UNL     1      96.602   4.617  30.724  0.00  0.00    +0.000 HD
ENDBRANCH  10  22
TORSDOF 4
ENDMDL
MODEL 8
REMARK VINA RESULT:      -6.7      4.361      5.416
REMARK  Name = 5280443
REMARK  4 active torsions:
REMARK  status: ('A' for Active; 'I' for Inactive)
REMARK    1  A    between atoms: O_2  and  C_12
REMARK    2  A    between atoms: O_4  and  C_14
REMARK    3  A    between atoms: O_5  and  C_20
REMARK    4  A    between atoms: C_8  and  C_9
REMARK                            x       y       z     vdW  Elec       q    Type
REMARK                         _______ _______ _______ _____ _____    ______ ____
ROOT
ATOM      1  O   UNL     1      90.632   2.426  28.015  0.00  0.00    +0.000 OA
ATOM      2  O   UNL     1      94.661   1.818  27.992  0.00  0.00    +0.000 OA
ATOM      3  C   UNL     1      92.520   1.048  27.354  0.00  0.00    +0.000 A 
ATOM      4  C   UNL     1      91.154   1.317  27.398  0.00  0.00    +0.000 A 
ATOM      5  C   UNL     1      91.505   3.312  28.628  0.00  0.00    +0.000 A 
ATOM      6  C   UNL     1      93.450   1.990  27.995  0.00  0.00    +0.000 A 
ATOM      7  C   UNL     1      92.840   3.166  28.648  0.00  0.00    +0.000 A 
ATOM      8  C   UNL     1      92.994  -0.097  26.710  0.00  0.00    +0.000 A 
ATOM      9  C   UNL     1      90.250   0.440  26.796  0.00  0.00    +0.000 A 
ATOM     10  C   UNL     1      90.719  -0.705  26.152  0.00  0.00    +0.000 A 
ATOM     11  C   UNL     1      92.089  -0.974  26.110  0.00  0.00    +0.000 A 
ENDROOT
BRANCH   5  12
ATOM     12  C   UNL     1      90.841   4.471  29.256  0.00  0.00    +0.000 A 
ATOM     13  C   UNL     1      91.226   4.895  30.531  0.00  0.00    +0.000 A 
ATOM     14  C   UNL     1      89.825   5.149  28.578  0.00  0.00    +0.000 A 
ATOM     15  C   UNL     1      90.598   5.991  31.123  0.00  0.00    +0.000 A 
ATOM     16  C   UNL     1      89.198   6.245  29.171  0.00  0.00    +0.000 A 
ATOM     17  C   UNL     1      89.584   6.666  30.444  0.00  0.00    +0.000 A 
BRANCH  17  18
ATOM     18  O   UNL     1      88.973   7.735  31.022  0.00  0.00    +0.000 OA
ATOM     19  H   UNL     1      89.560   8.103  31.704  0.00  0.00    +0.000 HD
ENDBRANCH  17  18
ENDBRANCH   5  12
BRANCH   8  20
ATOM     20  O   UNL     1      94.319  -0.405  26.639  0.00  0.00    +0.000 OA
ATOM     21  H   UNL     1      94.590  -0.921  27.414  0.00  0.00    +0.000 HD
ENDBRANCH   8  20
BRANCH  10  22
ATOM     22  O   UNL     1      89.841  -1.563  25.564  0.00  0.00    +0.000 OA
ATOM     23  H   UNL     1      88.937  -1.321  25.830  0.00  0.00    +0.000 HD
ENDBRANCH  10  22
TORSDOF 4
ENDMDL
MODEL 9
REMARK VINA RESULT:      -6.7      3.313      4.796
REMARK  Name = 5280443
REMARK  4 active torsions:
REMARK  status: ('A' for Active; 'I' for Inactive)
REMARK    1  A    between atoms: O_2  and  C_12
REMARK    2  A    between atoms: O_4  and  C_14
REMARK    3  A    between atoms: O_5  and  C_20
REMARK    4  A    between atoms: C_8  and  C_9
REMARK                            x       y       z     vdW  Elec       q    Type
REMARK                         _______ _______ _______ _____ _____    ______ ____
ROOT
ATOM      1  O   UNL     1      94.104  -1.604  26.411  0.00  0.00    +0.000 OA
ATOM      2  O   UNL     1      93.357  -4.665  28.993  0.00  0.00    +0.000 OA
ATOM      3  C   UNL     1      92.484  -3.017  27.542  0.00  0.00    +0.000 A 
ATOM      4  C   UNL     1      92.810  -1.981  26.670  0.00  0.00    +0.000 A 
ATOM      5  C   UNL     1      95.130  -2.281  27.054  0.00  0.00    +0.000 A 
ATOM      6  C   UNL     1      93.570  -3.745  28.218  0.00  0.00    +0.000 A 
ATOM      7  C   UNL     1      94.944  -3.299  27.908  0.00  0.00    +0.000 A 
ATOM      8  C   UNL     1      91.149  -3.358  27.766  0.00  0.00    +0.000 A 
ATOM      9  C   UNL     1      91.800  -1.277  26.014  0.00  0.00    +0.000 A 
ATOM     10  C   UNL     1      90.464  -1.614  26.236  0.00  0.00    +0.000 A 
ATOM     11  C   UNL     1      90.139  -2.653  27.111  0.00  0.00    +0.000 A 
ENDROOT
BRANCH   5  12
ATOM     12  C   UNL     1      96.480  -1.799  26.699  0.00  0.00    +0.000 A 
ATOM     13  C   UNL     1      96.837  -0.470  26.945  0.00  0.00    +0.000 A 
ATOM     14  C   UNL     1      97.405  -2.669  26.119  0.00  0.00    +0.000 A 
ATOM     15  C   UNL     1      98.113  -0.016  26.611  0.00  0.00    +0.000 A 
ATOM     16  C   UNL     1      98.681  -2.214  25.785  0.00  0.00    +0.000 A 
ATOM     17  C   UNL     1      99.035  -0.887  26.031  0.00  0.00    +0.000 A 
BRANCH  17  18
ATOM     18  O   UNL     1     100.279  -0.444  25.706  0.00  0.00    +0.000 OA
ATOM     19  H   UNL     1     100.718  -0.119  26.512  0.00  0.00    +0.000 HD
ENDBRANCH  17  18
ENDBRANCH   5  12
BRANCH   8  20
ATOM     20  O   UNL     1      90.779  -4.363  28.609  0.00  0.00    +0.000 OA
ATOM     21  H   UNL     1      89.815  -4.473  28.604  0.00  0.00    +0.000 HD
ENDBRANCH   8  20
BRANCH  10  22
ATOM     22  O   UNL     1      89.475  -0.929  25.598  0.00  0.00    +0.000 OA
ATOM     23  H   UNL     1      89.791  -0.031  25.398  0.00  0.00    +0.000 HD
ENDBRANCH  10  22
TORSDOF 4
ENDMDL
