MODEL 1
REMARK VINA RESULT:      -7.2      0.000      0.000
REMARK  Name = 118736856
REMARK  9 active torsions:
REMARK  status: ('A' for Active; 'I' for Inactive)
REMARK    1  A    between atoms: O_2  and  C_11
REMARK    2  A    between atoms: O_2  and  C_15
REMARK    3  A    between atoms: O_3  and  C_19
REMARK    4  A    between atoms: O_3  and  C_27
REMARK    5  A    between atoms: N_5  and  C_8
REMARK    6  A    between atoms: N_5  and  C_14
REMARK    7  A    between atoms: N_6  and  C_25
REMARK    8  A    between atoms: C_15  and  C_19
REMARK    9  A    between atoms: C_23  and  C_26
REMARK                            x       y       z     vdW  Elec       q    Type
REMARK                         _______ _______ _______ _____ _____    ______ ____
ROOT
ATOM      1  O   UNL     1      89.801   0.133  25.740  0.00  0.00    +0.000 OA
ATOM      2  N   UNL     1      91.034  -1.599  26.694  0.00  0.00    +0.000 N 
ATOM      3  C   UNL     1      93.302   0.108  26.407  0.00  0.00    +0.000 A 
ATOM      4  C   UNL     1      93.450  -1.243  26.999  0.00  0.00    +0.000 A 
ATOM      5  C   UNL     1      92.083   0.503  26.014  0.00  0.00    +0.000 A 
ATOM      6  C   UNL     1      92.314  -2.072  27.132  0.00  0.00    +0.000 A 
ATOM      7  C   UNL     1      94.695  -1.736  27.437  0.00  0.00    +0.000 A 
ATOM      8  C   UNL     1      90.869  -0.335  26.136  0.00  0.00    +0.000 A 
ATOM      9  C   UNL     1      92.460  -3.356  27.695  0.00  0.00    +0.000 A 
ATOM     10  C   UNL     1      94.820  -3.010  27.992  0.00  0.00    +0.000 A 
ATOM     11  C   UNL     1      93.703  -3.820  28.122  0.00  0.00    +0.000 A 
ATOM     12  C   UNL     1      89.869  -2.469  26.839  0.00  0.00    +0.000 C 
ENDROOT
BRANCH  10  15
ATOM     13  S   UNL     1      97.041  -2.544  29.524  0.00  0.00    +0.000 S 
ATOM     14  N   UNL     1      98.026  -4.796  28.721  0.00  0.00    +0.000 NA
ATOM     15  C   UNL     1      96.109  -3.484  28.432  0.00  0.00    +0.000 A 
ATOM     16  C   UNL     1      96.791  -4.642  28.120  0.00  0.00    +0.000 A 
ATOM     17  C   UNL     1      98.262  -3.751  29.482  0.00  0.00    +0.000 A 
ENDBRANCH  10  15
BRANCH   3  18
ATOM     18  N   UNL     1      94.394   0.923  26.273  0.00  0.00    +0.000 N 
ATOM     19  H   UNL     1      95.267   0.523  25.956  0.00  0.00    +0.000 HD
BRANCH  18  20
ATOM     20  C   UNL     1      94.325   2.364  26.385  0.00  0.00    +0.000 C 
ATOM     21  C   UNL     1      95.442   2.857  27.309  0.00  0.00    +0.000 C 
ATOM     22  C   UNL     1      94.431   2.990  24.993  0.00  0.00    +0.000 C 
ATOM     23  C   UNL     1      95.581   5.007  25.989  0.00  0.00    +0.000 C 
ATOM     24  C   UNL     1      95.474   4.381  27.378  0.00  0.00    +0.000 C 
ATOM     25  C   UNL     1      94.467   4.513  25.067  0.00  0.00    +0.000 C 
BRANCH  23  26
ATOM     26  O   UNL     1      95.501   6.422  26.121  0.00  0.00    +0.000 OA
BRANCH  26  27
ATOM     27  C   UNL     1      94.887   6.795  27.347  0.00  0.00    +0.000 C 
BRANCH  27  28
ATOM     28  C   UNL     1      93.787   7.800  27.062  0.00  0.00    +0.000 C 
BRANCH  28  29
ATOM     29  O   UNL     1      92.546   7.114  26.960  0.00  0.00    +0.000 OA
ATOM     30  C   UNL     1      92.317   6.279  28.086  0.00  0.00    +0.000 C 
ENDBRANCH  28  29
ENDBRANCH  27  28
ENDBRANCH  26  27
ENDBRANCH  23  26
ENDBRANCH  18  20
ENDBRANCH   3  18
TORSDOF 7
ENDMDL
MODEL 2
REMARK VINA RESULT:      -7.1      1.588      1.943
REMARK  Name = 118736856
REMARK  9 active torsions:
REMARK  status: ('A' for Active; 'I' for Inactive)
REMARK    1  A    between atoms: O_2  and  C_11
REMARK    2  A    between atoms: O_2  and  C_15
REMARK    3  A    between atoms: O_3  and  C_19
REMARK    4  A    between atoms: O_3  and  C_27
REMARK    5  A    between atoms: N_5  and  C_8
REMARK    6  A    between atoms: N_5  and  C_14
REMARK    7  A    between atoms: N_6  and  C_25
REMARK    8  A    between atoms: C_15  and  C_19
REMARK    9  A    between atoms: C_23  and  C_26
REMARK                            x       y       z     vdW  Elec       q    Type
REMARK                         _______ _______ _______ _____ _____    ______ ____
ROOT
ATOM      1  O   UNL     1      89.031  -1.876  26.507  0.00  0.00    +0.000 OA
ATOM      2  N   UNL     1      90.927  -2.966  27.315  0.00  0.00    +0.000 N 
ATOM      3  C   UNL     1      92.416  -0.799  26.209  0.00  0.00    +0.000 A 
ATOM      4  C   UNL     1      93.109  -1.904  26.911  0.00  0.00    +0.000 A 
ATOM      5  C   UNL     1      91.080  -0.844  26.108  0.00  0.00    +0.000 A 
ATOM      6  C   UNL     1      92.353  -2.968  27.452  0.00  0.00    +0.000 A 
ATOM      7  C   UNL     1      94.510  -1.933  27.060  0.00  0.00    +0.000 A 
ATOM      8  C   UNL     1      90.252  -1.940  26.661  0.00  0.00    +0.000 A 
ATOM      9  C   UNL     1      93.017  -4.016  28.119  0.00  0.00    +0.000 A 
ATOM     10  C   UNL     1      95.150  -2.981  27.724  0.00  0.00    +0.000 A 
ATOM     11  C   UNL     1      94.404  -4.022  28.254  0.00  0.00    +0.000 A 
ATOM     12  C   UNL     1      90.158  -4.073  27.880  0.00  0.00    +0.000 C 
ENDROOT
BRANCH  10  15
ATOM     13  S   UNL     1      97.549  -2.049  26.789  0.00  0.00    +0.000 S 
ATOM     14  N   UNL     1      98.756  -3.420  28.618  0.00  0.00    +0.000 NA
ATOM     15  C   UNL     1      96.586  -2.980  27.860  0.00  0.00    +0.000 A 
ATOM     16  C   UNL     1      97.399  -3.637  28.761  0.00  0.00    +0.000 A 
ATOM     17  C   UNL     1      98.952  -2.600  27.610  0.00  0.00    +0.000 A 
ENDBRANCH  10  15
BRANCH   3  18
ATOM     18  N   UNL     1      93.135   0.240  25.680  0.00  0.00    +0.000 N 
ATOM     19  H   UNL     1      93.749   0.061  24.897  0.00  0.00    +0.000 HD
BRANCH  18  20
ATOM     20  C   UNL     1      92.933   1.620  26.064  0.00  0.00    +0.000 C 
ATOM     21  C   UNL     1      92.752   1.707  27.581  0.00  0.00    +0.000 C 
ATOM     22  C   UNL     1      94.122   2.459  25.592  0.00  0.00    +0.000 C 
ATOM     23  C   UNL     1      93.824   3.995  27.577  0.00  0.00    +0.000 C 
ATOM     24  C   UNL     1      92.637   3.156  28.046  0.00  0.00    +0.000 C 
ATOM     25  C   UNL     1      94.006   3.907  26.062  0.00  0.00    +0.000 C 
BRANCH  23  26
ATOM     26  O   UNL     1      93.600   5.349  27.954  0.00  0.00    +0.000 OA
BRANCH  26  27
ATOM     27  C   UNL     1      92.275   5.544  28.426  0.00  0.00    +0.000 C 
BRANCH  27  28
ATOM     28  C   UNL     1      91.757   6.873  27.910  0.00  0.00    +0.000 C 
BRANCH  28  29
ATOM     29  O   UNL     1      90.350   6.933  28.109  0.00  0.00    +0.000 OA
ATOM     30  C   UNL     1      89.842   5.706  28.611  0.00  0.00    +0.000 C 
ENDBRANCH  28  29
ENDBRANCH  27  28
ENDBRANCH  26  27
ENDBRANCH  23  26
ENDBRANCH  18  20
ENDBRANCH   3  18
TORSDOF 7
ENDMDL
MODEL 3
REMARK VINA RESULT:      -7.0      2.955      3.793
REMARK  Name = 118736856
REMARK  9 active torsions:
REMARK  status: ('A' for Active; 'I' for Inactive)
REMARK    1  A    between atoms: O_2  and  C_11
REMARK    2  A    between atoms: O_2  and  C_15
REMARK    3  A    between atoms: O_3  and  C_19
REMARK    4  A    between atoms: O_3  and  C_27
REMARK    5  A    between atoms: N_5  and  C_8
REMARK    6  A    between atoms: N_5  and  C_14
REMARK    7  A    between atoms: N_6  and  C_25
REMARK    8  A    between atoms: C_15  and  C_19
REMARK    9  A    between atoms: C_23  and  C_26
REMARK                            x       y       z     vdW  Elec       q    Type
REMARK                         _______ _______ _______ _____ _____    ______ ____
ROOT
ATOM      1  O   UNL     1      89.454  -4.290  27.256  0.00  0.00    +0.000 OA
ATOM      2  N   UNL     1      91.700  -4.238  27.875  0.00  0.00    +0.000 N 
ATOM      3  C   UNL     1      91.846  -1.777  26.440  0.00  0.00    +0.000 A 
ATOM      4  C   UNL     1      93.046  -2.324  27.115  0.00  0.00    +0.000 A 
ATOM      5  C   UNL     1      90.698  -2.465  26.521  0.00  0.00    +0.000 A 
ATOM      6  C   UNL     1      92.953  -3.544  27.820  0.00  0.00    +0.000 A 
ATOM      7  C   UNL     1      94.291  -1.665  27.078  0.00  0.00    +0.000 A 
ATOM      8  C   UNL     1      90.559  -3.746  27.250  0.00  0.00    +0.000 A 
ATOM      9  C   UNL     1      94.097  -4.060  28.461  0.00  0.00    +0.000 A 
ATOM     10  C   UNL     1      95.414  -2.191  27.718  0.00  0.00    +0.000 A 
ATOM     11  C   UNL     1      95.317  -3.388  28.410  0.00  0.00    +0.000 A 
ATOM     12  C   UNL     1      91.620  -5.500  28.609  0.00  0.00    +0.000 C 
ENDROOT
BRANCH  10  15
ATOM     13  S   UNL     1      97.708  -1.692  26.310  0.00  0.00    +0.000 S 
ATOM     14  N   UNL     1      98.487  -0.112  28.202  0.00  0.00    +0.000 NA
ATOM     15  C   UNL     1      96.673  -1.490  27.663  0.00  0.00    +0.000 A 
ATOM     16  C   UNL     1      97.251  -0.617  28.561  0.00  0.00    +0.000 A 
ATOM     17  C   UNL     1      98.827  -0.610  27.034  0.00  0.00    +0.000 A 
ENDBRANCH  10  15
BRANCH   3  18
ATOM     18  N   UNL     1      91.921  -0.595  25.753  0.00  0.00    +0.000 N 
ATOM     19  H   UNL     1      92.119  -0.617  24.762  0.00  0.00    +0.000 HD
BRANCH  18  20
ATOM     20  C   UNL     1      91.555   0.681  26.329  0.00  0.00    +0.000 C 
ATOM     21  C   UNL     1      90.651   0.453  27.544  0.00  0.00    +0.000 C 
ATOM     22  C   UNL     1      92.822   1.450  26.710  0.00  0.00    +0.000 C 
ATOM     23  C   UNL     1      91.585   2.534  28.629  0.00  0.00    +0.000 C 
ATOM     24  C   UNL     1      90.321   1.766  28.246  0.00  0.00    +0.000 C 
ATOM     25  C   UNL     1      92.489   2.761  27.417  0.00  0.00    +0.000 C 
BRANCH  23  26
ATOM     26  O   UNL     1      91.204   3.789  29.183  0.00  0.00    +0.000 OA
BRANCH  26  27
ATOM     27  C   UNL     1      89.897   4.163  28.770  0.00  0.00    +0.000 C 
BRANCH  27  28
ATOM     28  C   UNL     1      89.869   5.658  28.515  0.00  0.00    +0.000 C 
BRANCH  28  29
ATOM     29  O   UNL     1      88.773   6.229  29.220  0.00  0.00    +0.000 OA
ATOM     30  C   UNL     1      89.213   7.125  30.230  0.00  0.00    +0.000 C 
ENDBRANCH  28  29
ENDBRANCH  27  28
ENDBRANCH  26  27
ENDBRANCH  23  26
ENDBRANCH  18  20
ENDBRANCH   3  18
TORSDOF 7
ENDMDL
MODEL 4
REMARK VINA RESULT:      -6.9      4.177      7.420
REMARK  Name = 118736856
REMARK  9 active torsions:
REMARK  status: ('A' for Active; 'I' for Inactive)
REMARK    1  A    between atoms: O_2  and  C_11
REMARK    2  A    between atoms: O_2  and  C_15
REMARK    3  A    between atoms: O_3  and  C_19
REMARK    4  A    between atoms: O_3  and  C_27
REMARK    5  A    between atoms: N_5  and  C_8
REMARK    6  A    between atoms: N_5  and  C_14
REMARK    7  A    between atoms: N_6  and  C_25
REMARK    8  A    between atoms: C_15  and  C_19
REMARK    9  A    between atoms: C_23  and  C_26
REMARK                            x       y       z     vdW  Elec       q    Type
REMARK                         _______ _______ _______ _____ _____    ______ ____
ROOT
ATOM      1  O   UNL     1      91.508  -3.064  26.308  0.00  0.00    +0.000 OA
ATOM      2  N   UNL     1      90.330  -1.187  27.032  0.00  0.00    +0.000 N 
ATOM      3  C   UNL     1      92.872  -0.083  27.709  0.00  0.00    +0.000 A 
ATOM      4  C   UNL     1      91.630   0.689  27.948  0.00  0.00    +0.000 A 
ATOM      5  C   UNL     1      92.770  -1.306  27.169  0.00  0.00    +0.000 A 
ATOM      6  C   UNL     1      90.382   0.124  27.606  0.00  0.00    +0.000 A 
ATOM      7  C   UNL     1      91.650   1.980  28.512  0.00  0.00    +0.000 A 
ATOM      8  C   UNL     1      91.481  -1.934  26.796  0.00  0.00    +0.000 A 
ATOM      9  C   UNL     1      89.204   0.864  27.835  0.00  0.00    +0.000 A 
ATOM     10  C   UNL     1      90.473   2.698  28.733  0.00  0.00    +0.000 A 
ATOM     11  C   UNL     1      89.251   2.140  28.393  0.00  0.00    +0.000 A 
ATOM     12  C   UNL     1      89.031  -1.758  26.682  0.00  0.00    +0.000 C 
ENDROOT
BRANCH  10  15
ATOM     13  S   UNL     1      91.317   4.265  30.813  0.00  0.00    +0.000 S 
ATOM     14  N   UNL     1      90.255   6.317  29.655  0.00  0.00    +0.000 NA
ATOM     15  C   UNL     1      90.528   4.018  29.310  0.00  0.00    +0.000 A 
ATOM     16  C   UNL     1      90.029   5.218  28.848  0.00  0.00    +0.000 A 
ATOM     17  C   UNL     1      90.925   5.933  30.718  0.00  0.00    +0.000 A 
ENDBRANCH  10  15
BRANCH   3  18
ATOM     18  N   UNL     1      94.090   0.451  28.035  0.00  0.00    +0.000 N 
ATOM     19  H   UNL     1      94.123   1.247  28.658  0.00  0.00    +0.000 HD
BRANCH  18  20
ATOM     20  C   UNL     1      95.348  -0.169  27.682  0.00  0.00    +0.000 C 
ATOM     21  C   UNL     1      96.177   0.803  26.839  0.00  0.00    +0.000 C 
ATOM     22  C   UNL     1      96.089  -0.580  28.956  0.00  0.00    +0.000 C 
ATOM     23  C   UNL     1      98.299  -0.178  27.797  0.00  0.00    +0.000 C 
ATOM     24  C   UNL     1      97.557   0.231  26.527  0.00  0.00    +0.000 C 
ATOM     25  C   UNL     1      97.470  -1.147  28.640  0.00  0.00    +0.000 C 
BRANCH  23  26
ATOM     26  O   UNL     1      99.527  -0.795  27.428  0.00  0.00    +0.000 OA
BRANCH  26  27
ATOM     27  C   UNL     1      99.684  -0.835  26.017  0.00  0.00    +0.000 C 
BRANCH  27  28
ATOM     28  C   UNL     1      99.896  -2.273  25.584  0.00  0.00    +0.000 C 
BRANCH  28  29
ATOM     29  O   UNL     1      98.640  -2.941  25.558  0.00  0.00    +0.000 OA
ATOM     30  C   UNL     1      98.653  -4.107  26.369  0.00  0.00    +0.000 C 
ENDBRANCH  28  29
ENDBRANCH  27  28
ENDBRANCH  26  27
ENDBRANCH  23  26
ENDBRANCH  18  20
ENDBRANCH   3  18
TORSDOF 7
ENDMDL
MODEL 5
REMARK VINA RESULT:      -6.9      3.154      5.656
REMARK  Name = 118736856
REMARK  9 active torsions:
REMARK  status: ('A' for Active; 'I' for Inactive)
REMARK    1  A    between atoms: O_2  and  C_11
REMARK    2  A    between atoms: O_2  and  C_15
REMARK    3  A    between atoms: O_3  and  C_19
REMARK    4  A    between atoms: O_3  and  C_27
REMARK    5  A    between atoms: N_5  and  C_8
REMARK    6  A    between atoms: N_5  and  C_14
REMARK    7  A    between atoms: N_6  and  C_25
REMARK    8  A    between atoms: C_15  and  C_19
REMARK    9  A    between atoms: C_23  and  C_26
REMARK                            x       y       z     vdW  Elec       q    Type
REMARK                         _______ _______ _______ _____ _____    ______ ____
ROOT
ATOM      1  O   UNL     1      91.587  -2.713  26.265  0.00  0.00    +0.000 OA
ATOM      2  N   UNL     1      90.389  -0.861  27.019  0.00  0.00    +0.000 N 
ATOM      3  C   UNL     1      92.894   0.152  27.936  0.00  0.00    +0.000 A 
ATOM      4  C   UNL     1      91.650   0.932  28.136  0.00  0.00    +0.000 A 
ATOM      5  C   UNL     1      92.811  -1.035  27.317  0.00  0.00    +0.000 A 
ATOM      6  C   UNL     1      90.420   0.412  27.674  0.00  0.00    +0.000 A 
ATOM      7  C   UNL     1      91.649   2.186  28.778  0.00  0.00    +0.000 A 
ATOM      8  C   UNL     1      91.542  -1.614  26.818  0.00  0.00    +0.000 A 
ATOM      9  C   UNL     1      89.240   1.159  27.867  0.00  0.00    +0.000 A 
ATOM     10  C   UNL     1      90.470   2.911  28.960  0.00  0.00    +0.000 A 
ATOM     11  C   UNL     1      89.267   2.398  28.504  0.00  0.00    +0.000 A 
ATOM     12  C   UNL     1      89.109  -1.385  26.546  0.00  0.00    +0.000 C 
ENDROOT
BRANCH  10  15
ATOM     13  S   UNL     1      91.262   4.350  31.151  0.00  0.00    +0.000 S 
ATOM     14  N   UNL     1      90.207   6.464  30.102  0.00  0.00    +0.000 NA
ATOM     15  C   UNL     1      90.504   4.194  29.620  0.00  0.00    +0.000 A 
ATOM     16  C   UNL     1      90.005   5.417  29.224  0.00  0.00    +0.000 A 
ATOM     17  C   UNL     1      90.859   6.019  31.152  0.00  0.00    +0.000 A 
ENDBRANCH  10  15
BRANCH   3  18
ATOM     18  N   UNL     1      94.093   0.642  28.378  0.00  0.00    +0.000 N 
ATOM     19  H   UNL     1      94.557   0.180  29.148  0.00  0.00    +0.000 HD
BRANCH  18  20
ATOM     20  C   UNL     1      94.826   1.681  27.688  0.00  0.00    +0.000 C 
ATOM     21  C   UNL     1      94.120   2.017  26.372  0.00  0.00    +0.000 C 
ATOM     22  C   UNL     1      94.942   2.910  28.592  0.00  0.00    +0.000 C 
ATOM     23  C   UNL     1      94.915   4.408  26.556  0.00  0.00    +0.000 C 
ATOM     24  C   UNL     1      94.801   3.180  25.656  0.00  0.00    +0.000 C 
ATOM     25  C   UNL     1      95.619   4.073  27.871  0.00  0.00    +0.000 C 
BRANCH  23  26
ATOM     26  O   UNL     1      95.649   5.413  25.864  0.00  0.00    +0.000 OA
BRANCH  26  27
ATOM     27  C   UNL     1      95.220   6.715  26.232  0.00  0.00    +0.000 C 
BRANCH  27  28
ATOM     28  C   UNL     1      93.704   6.752  26.241  0.00  0.00    +0.000 C 
BRANCH  28  29
ATOM     29  O   UNL     1      93.267   7.669  27.237  0.00  0.00    +0.000 OA
ATOM     30  C   UNL     1      93.598   7.219  28.542  0.00  0.00    +0.000 C 
ENDBRANCH  28  29
ENDBRANCH  27  28
ENDBRANCH  26  27
ENDBRANCH  23  26
ENDBRANCH  18  20
ENDBRANCH   3  18
TORSDOF 7
ENDMDL
MODEL 6
REMARK VINA RESULT:      -6.8      4.059      7.739
REMARK  Name = 118736856
REMARK  9 active torsions:
REMARK  status: ('A' for Active; 'I' for Inactive)
REMARK    1  A    between atoms: O_2  and  C_11
REMARK    2  A    between atoms: O_2  and  C_15
REMARK    3  A    between atoms: O_3  and  C_19
REMARK    4  A    between atoms: O_3  and  C_27
REMARK    5  A    between atoms: N_5  and  C_8
REMARK    6  A    between atoms: N_5  and  C_14
REMARK    7  A    between atoms: N_6  and  C_25
REMARK    8  A    between atoms: C_15  and  C_19
REMARK    9  A    between atoms: C_23  and  C_26
REMARK                            x       y       z     vdW  Elec       q    Type
REMARK                         _______ _______ _______ _____ _____    ______ ____
ROOT
ATOM      1  O   UNL     1      90.888  -4.300  27.663  0.00  0.00    +0.000 OA
ATOM      2  N   UNL     1      90.971  -2.082  26.952  0.00  0.00    +0.000 N 
ATOM      3  C   UNL     1      93.736  -2.157  27.649  0.00  0.00    +0.000 A 
ATOM      4  C   UNL     1      93.135  -0.921  27.096  0.00  0.00    +0.000 A 
ATOM      5  C   UNL     1      92.951  -3.231  27.812  0.00  0.00    +0.000 A 
ATOM      6  C   UNL     1      91.764  -0.905  26.757  0.00  0.00    +0.000 A 
ATOM      7  C   UNL     1      93.889   0.252  26.894  0.00  0.00    +0.000 A 
ATOM      8  C   UNL     1      91.511  -3.255  27.469  0.00  0.00    +0.000 A 
ATOM      9  C   UNL     1      91.197   0.274  26.230  0.00  0.00    +0.000 A 
ATOM     10  C   UNL     1      93.311   1.410  26.372  0.00  0.00    +0.000 A 
ATOM     11  C   UNL     1      91.965   1.420  26.039  0.00  0.00    +0.000 A 
ATOM     12  C   UNL     1      89.554  -2.050  26.596  0.00  0.00    +0.000 C 
ENDROOT
BRANCH  10  15
ATOM     13  S   UNL     1      95.010   3.248  27.483  0.00  0.00    +0.000 S 
ATOM     14  N   UNL     1      95.150   4.449  25.198  0.00  0.00    +0.000 NA
ATOM     15  C   UNL     1      94.111   2.594  26.176  0.00  0.00    +0.000 A 
ATOM     16  C   UNL     1      94.310   3.362  25.047  0.00  0.00    +0.000 A 
ATOM     17  C   UNL     1      95.577   4.488  26.440  0.00  0.00    +0.000 A 
ENDBRANCH  10  15
BRANCH   3  18
ATOM     18  N   UNL     1      95.064  -2.188  27.982  0.00  0.00    +0.000 N 
ATOM     19  H   UNL     1      95.348  -1.855  28.894  0.00  0.00    +0.000 HD
BRANCH  18  20
ATOM     20  C   UNL     1      96.069  -2.837  27.169  0.00  0.00    +0.000 C 
ATOM     21  C   UNL     1      97.065  -1.793  26.658  0.00  0.00    +0.000 C 
ATOM     22  C   UNL     1      96.767  -3.922  27.992  0.00  0.00    +0.000 C 
ATOM     23  C   UNL     1      98.903  -3.527  26.700  0.00  0.00    +0.000 C 
ATOM     24  C   UNL     1      98.204  -2.445  25.879  0.00  0.00    +0.000 C 
ATOM     25  C   UNL     1      97.908  -4.568  27.212  0.00  0.00    +0.000 C 
BRANCH  23  26
ATOM     26  O   UNL     1      99.879  -4.160  25.879  0.00  0.00    +0.000 OA
BRANCH  26  27
ATOM     27  C   UNL     1     101.135  -4.241  26.537  0.00  0.00    +0.000 C 
BRANCH  27  28
ATOM     28  C   UNL     1     102.204  -3.657  25.632  0.00  0.00    +0.000 C 
BRANCH  28  29
ATOM     29  O   UNL     1     101.588  -3.133  24.463  0.00  0.00    +0.000 OA
ATOM     30  C   UNL     1     102.030  -1.812  24.187  0.00  0.00    +0.000 C 
ENDBRANCH  28  29
ENDBRANCH  27  28
ENDBRANCH  26  27
ENDBRANCH  23  26
ENDBRANCH  18  20
ENDBRANCH   3  18
TORSDOF 7
ENDMDL
MODEL 7
REMARK VINA RESULT:      -6.8      1.918      2.308
REMARK  Name = 118736856
REMARK  9 active torsions:
REMARK  status: ('A' for Active; 'I' for Inactive)
REMARK    1  A    between atoms: O_2  and  C_11
REMARK    2  A    between atoms: O_2  and  C_15
REMARK    3  A    between atoms: O_3  and  C_19
REMARK    4  A    between atoms: O_3  and  C_27
REMARK    5  A    between atoms: N_5  and  C_8
REMARK    6  A    between atoms: N_5  and  C_14
REMARK    7  A    between atoms: N_6  and  C_25
REMARK    8  A    between atoms: C_15  and  C_19
REMARK    9  A    between atoms: C_23  and  C_26
REMARK                            x       y       z     vdW  Elec       q    Type
REMARK                         _______ _______ _______ _____ _____    ______ ____
ROOT
ATOM      1  O   UNL     1      88.949  -1.920  26.497  0.00  0.00    +0.000 OA
ATOM      2  N   UNL     1      90.869  -2.968  27.301  0.00  0.00    +0.000 N 
ATOM      3  C   UNL     1      92.312  -0.783  26.169  0.00  0.00    +0.000 A 
ATOM      4  C   UNL     1      93.029  -1.870  26.876  0.00  0.00    +0.000 A 
ATOM      5  C   UNL     1      90.976  -0.853  26.077  0.00  0.00    +0.000 A 
ATOM      6  C   UNL     1      92.295  -2.943  27.429  0.00  0.00    +0.000 A 
ATOM      7  C   UNL     1      94.431  -1.873  27.016  0.00  0.00    +0.000 A 
ATOM      8  C   UNL     1      90.171  -1.960  26.643  0.00  0.00    +0.000 A 
ATOM      9  C   UNL     1      92.983  -3.975  28.100  0.00  0.00    +0.000 A 
ATOM     10  C   UNL     1      95.095  -2.904  27.684  0.00  0.00    +0.000 A 
ATOM     11  C   UNL     1      94.370  -3.954  28.226  0.00  0.00    +0.000 A 
ATOM     12  C   UNL     1      90.124  -4.085  27.880  0.00  0.00    +0.000 C 
ENDROOT
BRANCH  10  15
ATOM     13  S   UNL     1      97.443  -1.682  26.983  0.00  0.00    +0.000 S 
ATOM     14  N   UNL     1      98.726  -3.391  28.438  0.00  0.00    +0.000 NA
ATOM     15  C   UNL     1      96.531  -2.876  27.812  0.00  0.00    +0.000 A 
ATOM     16  C   UNL     1      97.381  -3.690  28.531  0.00  0.00    +0.000 A 
ATOM     17  C   UNL     1      98.877  -2.351  27.648  0.00  0.00    +0.000 A 
ENDBRANCH  10  15
BRANCH   3  18
ATOM     18  N   UNL     1      93.009   0.264  25.628  0.00  0.00    +0.000 N 
ATOM     19  H   UNL     1      93.519   0.119  24.767  0.00  0.00    +0.000 HD
BRANCH  18  20
ATOM     20  C   UNL     1      92.913   1.619  26.123  0.00  0.00    +0.000 C 
ATOM     21  C   UNL     1      92.914   1.606  27.654  0.00  0.00    +0.000 C 
ATOM     22  C   UNL     1      94.074   2.448  25.569  0.00  0.00    +0.000 C 
ATOM     23  C   UNL     1      94.077   3.849  27.672  0.00  0.00    +0.000 C 
ATOM     24  C   UNL     1      92.917   3.021  28.223  0.00  0.00    +0.000 C 
ATOM     25  C   UNL     1      94.076   3.861  26.144  0.00  0.00    +0.000 C 
BRANCH  23  26
ATOM     26  O   UNL     1      93.958   5.180  28.162  0.00  0.00    +0.000 OA
BRANCH  26  27
ATOM     27  C   UNL     1      95.229   5.744  28.448  0.00  0.00    +0.000 C 
BRANCH  27  28
ATOM     28  C   UNL     1      95.974   4.825  29.398  0.00  0.00    +0.000 C 
BRANCH  28  29
ATOM     29  O   UNL     1      95.391   4.925  30.692  0.00  0.00    +0.000 OA
ATOM     30  C   UNL     1      95.217   3.647  31.285  0.00  0.00    +0.000 C 
ENDBRANCH  28  29
ENDBRANCH  27  28
ENDBRANCH  26  27
ENDBRANCH  23  26
ENDBRANCH  18  20
ENDBRANCH   3  18
TORSDOF 7
ENDMDL
MODEL 8
REMARK VINA RESULT:      -6.6      3.305      6.929
REMARK  Name = 118736856
REMARK  9 active torsions:
REMARK  status: ('A' for Active; 'I' for Inactive)
REMARK    1  A    between atoms: O_2  and  C_11
REMARK    2  A    between atoms: O_2  and  C_15
REMARK    3  A    between atoms: O_3  and  C_19
REMARK    4  A    between atoms: O_3  and  C_27
REMARK    5  A    between atoms: N_5  and  C_8
REMARK    6  A    between atoms: N_5  and  C_14
REMARK    7  A    between atoms: N_6  and  C_25
REMARK    8  A    between atoms: C_15  and  C_19
REMARK    9  A    between atoms: C_23  and  C_26
REMARK                            x       y       z     vdW  Elec       q    Type
REMARK                         _______ _______ _______ _____ _____    ______ ____
ROOT
ATOM      1  O   UNL     1      92.901   7.140  29.431  0.00  0.00    +0.000 OA
ATOM      2  N   UNL     1      91.515   5.268  29.345  0.00  0.00    +0.000 N 
ATOM      3  C   UNL     1      93.453   4.146  27.577  0.00  0.00    +0.000 A 
ATOM      4  C   UNL     1      92.239   3.380  27.943  0.00  0.00    +0.000 A 
ATOM      5  C   UNL     1      93.616   5.372  28.095  0.00  0.00    +0.000 A 
ATOM      6  C   UNL     1      91.292   3.954  28.820  0.00  0.00    +0.000 A 
ATOM      7  C   UNL     1      91.992   2.087  27.442  0.00  0.00    +0.000 A 
ATOM      8  C   UNL     1      92.647   6.008  29.018  0.00  0.00    +0.000 A 
ATOM      9  C   UNL     1      90.138   3.220  29.165  0.00  0.00    +0.000 A 
ATOM     10  C   UNL     1      90.843   1.375  27.794  0.00  0.00    +0.000 A 
ATOM     11  C   UNL     1      89.918   1.942  28.656  0.00  0.00    +0.000 A 
ATOM     12  C   UNL     1      90.526   5.848  30.251  0.00  0.00    +0.000 C 
ENDROOT
BRANCH  10  15
ATOM     13  S   UNL     1      91.956  -0.945  26.860  0.00  0.00    +0.000 S 
ATOM     14  N   UNL     1      89.581  -1.895  26.489  0.00  0.00    +0.000 NA
ATOM     15  C   UNL     1      90.621   0.052  27.265  0.00  0.00    +0.000 A 
ATOM     16  C   UNL     1      89.445  -0.620  27.002  0.00  0.00    +0.000 A 
ATOM     17  C   UNL     1      90.860  -2.173  26.372  0.00  0.00    +0.000 A 
ENDBRANCH  10  15
BRANCH   3  18
ATOM     18  N   UNL     1      94.381   3.603  26.729  0.00  0.00    +0.000 N 
ATOM     19  H   UNL     1      94.354   3.853  25.750  0.00  0.00    +0.000 HD
BRANCH  18  20
ATOM     20  C   UNL     1      95.514   2.828  27.185  0.00  0.00    +0.000 C 
ATOM     21  C   UNL     1      95.466   2.703  28.711  0.00  0.00    +0.000 C 
ATOM     22  C   UNL     1      95.498   1.455  26.510  0.00  0.00    +0.000 C 
ATOM     23  C   UNL     1      96.571   0.436  28.559  0.00  0.00    +0.000 C 
ATOM     24  C   UNL     1      96.587   1.807  29.231  0.00  0.00    +0.000 C 
ATOM     25  C   UNL     1      96.617   0.560  27.036  0.00  0.00    +0.000 C 
BRANCH  23  26
ATOM     26  O   UNL     1      97.698  -0.305  29.012  0.00  0.00    +0.000 OA
BRANCH  26  27
ATOM     27  C   UNL     1      97.606  -1.672  28.638  0.00  0.00    +0.000 C 
BRANCH  27  28
ATOM     28  C   UNL     1      96.694  -2.391  29.614  0.00  0.00    +0.000 C 
BRANCH  28  29
ATOM     29  O   UNL     1      96.035  -3.454  28.938  0.00  0.00    +0.000 OA
ATOM     30  C   UNL     1      95.341  -2.991  27.789  0.00  0.00    +0.000 C 
ENDBRANCH  28  29
ENDBRANCH  27  28
ENDBRANCH  26  27
ENDBRANCH  23  26
ENDBRANCH  18  20
ENDBRANCH   3  18
TORSDOF 7
ENDMDL
MODEL 9
REMARK VINA RESULT:      -6.6      2.872      5.058
REMARK  Name = 118736856
REMARK  9 active torsions:
REMARK  status: ('A' for Active; 'I' for Inactive)
REMARK    1  A    between atoms: O_2  and  C_11
REMARK    2  A    between atoms: O_2  and  C_15
REMARK    3  A    between atoms: O_3  and  C_19
REMARK    4  A    between atoms: O_3  and  C_27
REMARK    5  A    between atoms: N_5  and  C_8
REMARK    6  A    between atoms: N_5  and  C_14
REMARK    7  A    between atoms: N_6  and  C_25
REMARK    8  A    between atoms: C_15  and  C_19
REMARK    9  A    between atoms: C_23  and  C_26
REMARK                            x       y       z     vdW  Elec       q    Type
REMARK                         _______ _______ _______ _____ _____    ______ ____
ROOT
ATOM      1  O   UNL     1      98.943  -3.079  28.189  0.00  0.00    +0.000 OA
ATOM      2  N   UNL     1      96.650  -3.493  28.201  0.00  0.00    +0.000 N 
ATOM      3  C   UNL     1      96.366  -0.904  27.037  0.00  0.00    +0.000 A 
ATOM      4  C   UNL     1      95.172  -1.736  27.316  0.00  0.00    +0.000 A 
ATOM      5  C   UNL     1      97.574  -1.396  27.344  0.00  0.00    +0.000 A 
ATOM      6  C   UNL     1      95.335  -3.015  27.893  0.00  0.00    +0.000 A 
ATOM      7  C   UNL     1      93.867  -1.293  27.025  0.00  0.00    +0.000 A 
ATOM      8  C   UNL     1      97.787  -2.731  27.949  0.00  0.00    +0.000 A 
ATOM      9  C   UNL     1      94.195  -3.803  28.156  0.00  0.00    +0.000 A 
ATOM     10  C   UNL     1      92.750  -2.087  27.293  0.00  0.00    +0.000 A 
ATOM     11  C   UNL     1      92.915  -3.342  27.858  0.00  0.00    +0.000 A 
ATOM     12  C   UNL     1      96.801  -4.818  28.798  0.00  0.00    +0.000 C 
ENDROOT
BRANCH  10  15
ATOM     13  S   UNL     1      91.199   0.031  26.514  0.00  0.00    +0.000 S 
ATOM     14  N   UNL     1      89.116  -1.496  26.631  0.00  0.00    +0.000 NA
ATOM     15  C   UNL     1      91.427  -1.604  26.981  0.00  0.00    +0.000 A 
ATOM     16  C   UNL     1      90.213  -2.258  26.985  0.00  0.00    +0.000 A 
ATOM     17  C   UNL     1      89.516  -0.273  26.363  0.00  0.00    +0.000 A 
ENDBRANCH  10  15
BRANCH   3  18
ATOM     18  N   UNL     1      96.224   0.337  26.477  0.00  0.00    +0.000 N 
ATOM     19  H   UNL     1      96.719   0.547  25.620  0.00  0.00    +0.000 HD
BRANCH  18  20
ATOM     20  C   UNL     1      95.263   1.312  26.944  0.00  0.00    +0.000 C 
ATOM     21  C   UNL     1      95.898   2.169  28.043  0.00  0.00    +0.000 C 
ATOM     22  C   UNL     1      94.793   2.169  25.767  0.00  0.00    +0.000 C 
ATOM     23  C   UNL     1      94.486   4.137  27.324  0.00  0.00    +0.000 C 
ATOM     24  C   UNL     1      94.955   3.279  28.497  0.00  0.00    +0.000 C 
ATOM     25  C   UNL     1      93.854   3.282  26.226  0.00  0.00    +0.000 C 
BRANCH  23  26
ATOM     26  O   UNL     1      93.534   5.081  27.802  0.00  0.00    +0.000 OA
BRANCH  26  27
ATOM     27  C   UNL     1      92.853   4.595  28.950  0.00  0.00    +0.000 C 
BRANCH  27  28
ATOM     28  C   UNL     1      91.382   4.431  28.619  0.00  0.00    +0.000 C 
BRANCH  28  29
ATOM     29  O   UNL     1      91.076   3.044  28.539  0.00  0.00    +0.000 OA
ATOM     30  C   UNL     1      89.691   2.804  28.739  0.00  0.00    +0.000 C 
ENDBRANCH  28  29
ENDBRANCH  27  28
ENDBRANCH  26  27
ENDBRANCH  23  26
ENDBRANCH  18  20
ENDBRANCH   3  18
TORSDOF 7
ENDMDL
