MODEL 1
REMARK VINA RESULT:      -6.5      0.000      0.000
REMARK  Name = 168679856
REMARK  8 active torsions:
REMARK  status: ('A' for Active; 'I' for Inactive)
REMARK    1  A    between atoms: O_4  and  C_23
REMARK    2  A    between atoms: O_4  and  C_28
REMARK    3  A    between atoms: O_5  and  C_24
REMARK    4  A    between atoms: O_5  and  C_29
REMARK    5  A    between atoms: N_10  and  C_19
REMARK    6  A    between atoms: C_14  and  C_18
REMARK    7  A    between atoms: C_16  and  C_20
REMARK    8  A    between atoms: C_23  and  C_24
REMARK                            x       y       z     vdW  Elec       q    Type
REMARK                         _______ _______ _______ _____ _____    ______ ____
ROOT
ATOM      1  N   UNL     1      91.437   2.776  28.889  0.00  0.00    +0.000 N 
ATOM      2  N   UNL     1      92.984   1.114  28.382  0.00  0.00    +0.000 NA
ATOM      3  N   UNL     1      90.672   0.907  27.736  0.00  0.00    +0.000 NA
ATOM      4  N   UNL     1      90.284   4.556  29.549  0.00  0.00    +0.000 NA
ATOM      5  C   UNL     1      93.213  -0.086  27.811  0.00  0.00    +0.000 A 
ATOM      6  C   UNL     1      91.710   1.544  28.309  0.00  0.00    +0.000 A 
ATOM      7  C   UNL     1      90.973  -0.288  27.184  0.00  0.00    +0.000 A 
ATOM      8  C   UNL     1      92.238  -0.839  27.191  0.00  0.00    +0.000 A 
ATOM      9  C   UNL     1      92.334   3.590  29.522  0.00  0.00    +0.000 A 
ATOM     10  C   UNL     1      90.220   3.398  28.930  0.00  0.00    +0.000 A 
ATOM     11  C   UNL     1      91.600   4.681  29.920  0.00  0.00    +0.000 A 
ENDROOT
BRANCH   7  15
ATOM     12  F   UNL     1      88.638  -0.418  26.684  0.00  0.00    +0.000 F 
ATOM     13  F   UNL     1      90.026  -1.175  25.191  0.00  0.00    +0.000 F 
ATOM     14  F   UNL     1      89.675  -2.293  27.022  0.00  0.00    +0.000 F 
ATOM     15  C   UNL     1      89.850  -1.029  26.536  0.00  0.00    +0.000 C 
ENDBRANCH   7  15
BRANCH   5  18
ATOM     16  O   UNL     1      95.402   0.037  28.590  0.00  0.00    +0.000 OA
ATOM     17  N   UNL     1      94.887  -1.736  27.132  0.00  0.00    +0.000 N 
ATOM     18  C   UNL     1      94.614  -0.580  27.881  0.00  0.00    +0.000 C 
ATOM     19  H   UNL     1      94.113  -2.125  26.598  0.00  0.00    +0.000 HD
BRANCH  17  22
ATOM     20  N   UNL     1      98.207  -2.772  25.941  0.00  0.00    +0.000 NA
ATOM     21  N   UNL     1      97.568  -4.160  27.803  0.00  0.00    +0.000 NA
ATOM     22  C   UNL     1      96.088  -2.429  27.028  0.00  0.00    +0.000 A 
ATOM     23  C   UNL     1      97.032  -2.121  26.070  0.00  0.00    +0.000 A 
ATOM     24  C   UNL     1      96.413  -3.468  27.876  0.00  0.00    +0.000 A 
ATOM     25  C   UNL     1      98.408  -3.766  26.827  0.00  0.00    +0.000 A 
BRANCH  25  26
ATOM     26  O   UNL     1      99.596  -4.450  26.725  0.00  0.00    +0.000 OA
BRANCH  26  27
ATOM     27  C   UNL     1     100.203  -4.481  25.441  0.00  0.00    +0.000 C 
BRANCH  27  28
ATOM     28  C   UNL     1     101.596  -3.889  25.538  0.00  0.00    +0.000 C 
BRANCH  28  29
ATOM     29  O   UNL     1     101.764  -2.926  24.504  0.00  0.00    +0.000 OA
ATOM     30  C   UNL     1     101.469  -1.614  24.962  0.00  0.00    +0.000 C 
ENDBRANCH  28  29
ENDBRANCH  27  28
ENDBRANCH  26  27
ENDBRANCH  25  26
ENDBRANCH  17  22
ENDBRANCH   5  18
TORSDOF 7
ENDMDL
MODEL 2
REMARK VINA RESULT:      -6.4      6.124     10.351
REMARK  Name = 168679856
REMARK  8 active torsions:
REMARK  status: ('A' for Active; 'I' for Inactive)
REMARK    1  A    between atoms: O_4  and  C_23
REMARK    2  A    between atoms: O_4  and  C_28
REMARK    3  A    between atoms: O_5  and  C_24
REMARK    4  A    between atoms: O_5  and  C_29
REMARK    5  A    between atoms: N_10  and  C_19
REMARK    6  A    between atoms: C_14  and  C_18
REMARK    7  A    between atoms: C_16  and  C_20
REMARK    8  A    between atoms: C_23  and  C_24
REMARK                            x       y       z     vdW  Elec       q    Type
REMARK                         _______ _______ _______ _____ _____    ______ ____
ROOT
ATOM      1  N   UNL     1      91.788   0.763  26.843  0.00  0.00    +0.000 N 
ATOM      2  N   UNL     1      92.471   2.531  28.193  0.00  0.00    +0.000 NA
ATOM      3  N   UNL     1      93.142   2.391  25.882  0.00  0.00    +0.000 NA
ATOM      4  N   UNL     1      90.938  -1.058  25.896  0.00  0.00    +0.000 NA
ATOM      5  C   UNL     1      93.173   3.678  28.289  0.00  0.00    +0.000 A 
ATOM      6  C   UNL     1      92.499   1.948  26.978  0.00  0.00    +0.000 A 
ATOM      7  C   UNL     1      93.824   3.544  26.050  0.00  0.00    +0.000 A 
ATOM      8  C   UNL     1      93.875   4.238  27.242  0.00  0.00    +0.000 A 
ATOM      9  C   UNL     1      91.067   0.135  27.819  0.00  0.00    +0.000 A 
ATOM     10  C   UNL     1      91.681   0.009  25.707  0.00  0.00    +0.000 A 
ATOM     11  C   UNL     1      90.552  -0.986  27.212  0.00  0.00    +0.000 A 
ENDROOT
BRANCH   7  15
ATOM     12  F   UNL     1      93.800   4.914  24.091  0.00  0.00    +0.000 F 
ATOM     13  F   UNL     1      95.667   4.782  25.198  0.00  0.00    +0.000 F 
ATOM     14  F   UNL     1      94.985   3.098  24.004  0.00  0.00    +0.000 F 
ATOM     15  C   UNL     1      94.552   4.072  24.859  0.00  0.00    +0.000 C 
ENDBRANCH   7  15
BRANCH   5  18
ATOM     16  O   UNL     1      94.209   4.807  30.040  0.00  0.00    +0.000 OA
ATOM     17  N   UNL     1      91.907   4.376  30.262  0.00  0.00    +0.000 N 
ATOM     18  C   UNL     1      93.156   4.338  29.621  0.00  0.00    +0.000 C 
ATOM     19  H   UNL     1      91.130   3.939  29.771  0.00  0.00    +0.000 HD
BRANCH  17  22
ATOM     20  N   UNL     1      91.968   5.128  33.860  0.00  0.00    +0.000 NA
ATOM     21  N   UNL     1      90.258   6.457  32.804  0.00  0.00    +0.000 NA
ATOM     22  C   UNL     1      91.589   4.943  31.491  0.00  0.00    +0.000 A 
ATOM     23  C   UNL     1      92.250   4.598  32.652  0.00  0.00    +0.000 A 
ATOM     24  C   UNL     1      90.592   5.887  31.629  0.00  0.00    +0.000 A 
ATOM     25  C   UNL     1      90.975   6.038  33.864  0.00  0.00    +0.000 A 
BRANCH  25  26
ATOM     26  O   UNL     1      90.661   6.601  35.080  0.00  0.00    +0.000 OA
BRANCH  26  27
ATOM     27  C   UNL     1      89.394   6.264  35.626  0.00  0.00    +0.000 C 
BRANCH  27  28
ATOM     28  C   UNL     1      89.440   4.837  36.138  0.00  0.00    +0.000 C 
BRANCH  28  29
ATOM     29  O   UNL     1      88.262   4.156  35.722  0.00  0.00    +0.000 OA
ATOM     30  C   UNL     1      88.088   2.938  36.432  0.00  0.00    +0.000 C 
ENDBRANCH  28  29
ENDBRANCH  27  28
ENDBRANCH  26  27
ENDBRANCH  25  26
ENDBRANCH  17  22
ENDBRANCH   5  18
TORSDOF 7
ENDMDL
MODEL 3
REMARK VINA RESULT:      -6.3      2.577      3.787
REMARK  Name = 168679856
REMARK  8 active torsions:
REMARK  status: ('A' for Active; 'I' for Inactive)
REMARK    1  A    between atoms: O_4  and  C_23
REMARK    2  A    between atoms: O_4  and  C_28
REMARK    3  A    between atoms: O_5  and  C_24
REMARK    4  A    between atoms: O_5  and  C_29
REMARK    5  A    between atoms: N_10  and  C_19
REMARK    6  A    between atoms: C_14  and  C_18
REMARK    7  A    between atoms: C_16  and  C_20
REMARK    8  A    between atoms: C_23  and  C_24
REMARK                            x       y       z     vdW  Elec       q    Type
REMARK                         _______ _______ _______ _____ _____    ______ ____
ROOT
ATOM      1  N   UNL     1      90.920  -0.088  27.065  0.00  0.00    +0.000 N 
ATOM      2  N   UNL     1      93.241  -0.081  27.223  0.00  0.00    +0.000 NA
ATOM      3  N   UNL     1      91.965   1.946  27.489  0.00  0.00    +0.000 NA
ATOM      4  N   UNL     1      88.749  -0.504  26.847  0.00  0.00    +0.000 NA
ATOM      5  C   UNL     1      94.362   0.642  27.423  0.00  0.00    +0.000 A 
ATOM      6  C   UNL     1      92.095   0.624  27.269  0.00  0.00    +0.000 A 
ATOM      7  C   UNL     1      93.126   2.607  27.681  0.00  0.00    +0.000 A 
ATOM      8  C   UNL     1      94.366   2.001  27.659  0.00  0.00    +0.000 A 
ATOM      9  C   UNL     1      90.817  -1.430  26.825  0.00  0.00    +0.000 A 
ATOM     10  C   UNL     1      89.652   0.425  27.069  0.00  0.00    +0.000 A 
ATOM     11  C   UNL     1      89.469  -1.662  26.694  0.00  0.00    +0.000 A 
ENDROOT
BRANCH   7  15
ATOM     12  F   UNL     1      93.815   4.506  28.959  0.00  0.00    +0.000 F 
ATOM     13  F   UNL     1      93.404   4.816  26.847  0.00  0.00    +0.000 F 
ATOM     14  F   UNL     1      91.768   4.496  28.241  0.00  0.00    +0.000 F 
ATOM     15  C   UNL     1      93.029   4.075  27.929  0.00  0.00    +0.000 C 
ENDBRANCH   7  15
BRANCH   5  18
ATOM     16  O   UNL     1      96.657   0.452  27.756  0.00  0.00    +0.000 OA
ATOM     17  N   UNL     1      95.541  -1.441  26.916  0.00  0.00    +0.000 N 
ATOM     18  C   UNL     1      95.639  -0.118  27.376  0.00  0.00    +0.000 C 
ATOM     19  H   UNL     1      94.614  -1.759  26.641  0.00  0.00    +0.000 HD
BRANCH  17  22
ATOM     20  N   UNL     1      97.641  -4.389  27.558  0.00  0.00    +0.000 NA
ATOM     21  N   UNL     1      98.502  -3.208  25.643  0.00  0.00    +0.000 NA
ATOM     22  C   UNL     1      96.554  -2.385  26.790  0.00  0.00    +0.000 A 
ATOM     23  C   UNL     1      96.671  -3.455  27.652  0.00  0.00    +0.000 A 
ATOM     24  C   UNL     1      97.507  -2.311  25.795  0.00  0.00    +0.000 A 
ATOM     25  C   UNL     1      98.510  -4.207  26.546  0.00  0.00    +0.000 A 
BRANCH  25  26
ATOM     26  O   UNL     1      99.512  -5.141  26.420  0.00  0.00    +0.000 OA
BRANCH  26  27
ATOM     27  C   UNL     1     100.514  -4.869  25.450  0.00  0.00    +0.000 C 
BRANCH  27  28
ATOM     28  C   UNL     1     101.812  -4.534  26.161  0.00  0.00    +0.000 C 
BRANCH  28  29
ATOM     29  O   UNL     1     102.070  -3.142  26.023  0.00  0.00    +0.000 OA
ATOM     30  C   UNL     1     101.969  -2.726  24.668  0.00  0.00    +0.000 C 
ENDBRANCH  28  29
ENDBRANCH  27  28
ENDBRANCH  26  27
ENDBRANCH  25  26
ENDBRANCH  17  22
ENDBRANCH   5  18
TORSDOF 7
ENDMDL
MODEL 4
REMARK VINA RESULT:      -6.3      3.367      9.470
REMARK  Name = 168679856
REMARK  8 active torsions:
REMARK  status: ('A' for Active; 'I' for Inactive)
REMARK    1  A    between atoms: O_4  and  C_23
REMARK    2  A    between atoms: O_4  and  C_28
REMARK    3  A    between atoms: O_5  and  C_24
REMARK    4  A    between atoms: O_5  and  C_29
REMARK    5  A    between atoms: N_10  and  C_19
REMARK    6  A    between atoms: C_14  and  C_18
REMARK    7  A    between atoms: C_16  and  C_20
REMARK    8  A    between atoms: C_23  and  C_24
REMARK                            x       y       z     vdW  Elec       q    Type
REMARK                         _______ _______ _______ _____ _____    ______ ____
ROOT
ATOM      1  N   UNL     1      97.134  -2.151  26.624  0.00  0.00    +0.000 N 
ATOM      2  N   UNL     1      95.155  -0.952  26.877  0.00  0.00    +0.000 NA
ATOM      3  N   UNL     1      95.320  -3.253  27.576  0.00  0.00    +0.000 NA
ATOM      4  N   UNL     1      99.170  -2.941  26.218  0.00  0.00    +0.000 NA
ATOM      5  C   UNL     1      93.873  -0.956  27.295  0.00  0.00    +0.000 A 
ATOM      6  C   UNL     1      95.810  -2.117  27.045  0.00  0.00    +0.000 A 
ATOM      7  C   UNL     1      94.032  -3.186  27.972  0.00  0.00    +0.000 A 
ATOM      8  C   UNL     1      93.252  -2.053  27.856  0.00  0.00    +0.000 A 
ATOM      9  C   UNL     1      97.830  -1.119  26.059  0.00  0.00    +0.000 A 
ATOM     10  C   UNL     1      97.979  -3.223  26.699  0.00  0.00    +0.000 A 
ATOM     11  C   UNL     1      99.083  -1.630  25.817  0.00  0.00    +0.000 A 
ENDROOT
BRANCH   7  15
ATOM     12  F   UNL     1      93.111  -4.287  29.884  0.00  0.00    +0.000 F 
ATOM     13  F   UNL     1      92.306  -4.821  27.936  0.00  0.00    +0.000 F 
ATOM     14  F   UNL     1      94.285  -5.501  28.523  0.00  0.00    +0.000 F 
ATOM     15  C   UNL     1      93.448  -4.423  28.568  0.00  0.00    +0.000 C 
ENDBRANCH   7  15
BRANCH   5  18
ATOM     16  O   UNL     1      93.074   0.797  25.990  0.00  0.00    +0.000 OA
ATOM     17  N   UNL     1      92.541   0.843  28.281  0.00  0.00    +0.000 N 
ATOM     18  C   UNL     1      93.131   0.320  27.118  0.00  0.00    +0.000 C 
ATOM     19  H   UNL     1      92.683   0.317  29.140  0.00  0.00    +0.000 HD
BRANCH  17  22
ATOM     20  N   UNL     1      89.628   3.055  28.653  0.00  0.00    +0.000 NA
ATOM     21  N   UNL     1      91.629   4.393  28.561  0.00  0.00    +0.000 NA
ATOM     22  C   UNL     1      91.775   1.997  28.411  0.00  0.00    +0.000 A 
ATOM     23  C   UNL     1      90.401   1.956  28.525  0.00  0.00    +0.000 A 
ATOM     24  C   UNL     1      92.340   3.255  28.436  0.00  0.00    +0.000 A 
ATOM     25  C   UNL     1      90.297   4.223  28.664  0.00  0.00    +0.000 A 
BRANCH  25  26
ATOM     26  O   UNL     1      89.540   5.365  28.795  0.00  0.00    +0.000 OA
BRANCH  26  27
ATOM     27  C   UNL     1      90.167   6.586  28.432  0.00  0.00    +0.000 C 
BRANCH  27  28
ATOM     28  C   UNL     1      89.611   7.703  29.294  0.00  0.00    +0.000 C 
BRANCH  28  29
ATOM     29  O   UNL     1      88.729   7.147  30.261  0.00  0.00    +0.000 OA
ATOM     30  C   UNL     1      89.058   7.578  31.574  0.00  0.00    +0.000 C 
ENDBRANCH  28  29
ENDBRANCH  27  28
ENDBRANCH  26  27
ENDBRANCH  25  26
ENDBRANCH  17  22
ENDBRANCH   5  18
TORSDOF 7
ENDMDL
MODEL 5
REMARK VINA RESULT:      -6.3      2.134      2.578
REMARK  Name = 168679856
REMARK  8 active torsions:
REMARK  status: ('A' for Active; 'I' for Inactive)
REMARK    1  A    between atoms: O_4  and  C_23
REMARK    2  A    between atoms: O_4  and  C_28
REMARK    3  A    between atoms: O_5  and  C_24
REMARK    4  A    between atoms: O_5  and  C_29
REMARK    5  A    between atoms: N_10  and  C_19
REMARK    6  A    between atoms: C_14  and  C_18
REMARK    7  A    between atoms: C_16  and  C_20
REMARK    8  A    between atoms: C_23  and  C_24
REMARK                            x       y       z     vdW  Elec       q    Type
REMARK                         _______ _______ _______ _____ _____    ______ ____
ROOT
ATOM      1  N   UNL     1      92.704   3.211  30.645  0.00  0.00    +0.000 N 
ATOM      2  N   UNL     1      93.148   1.731  28.905  0.00  0.00    +0.000 NA
ATOM      3  N   UNL     1      90.886   2.263  29.546  0.00  0.00    +0.000 NA
ATOM      4  N   UNL     1      92.695   4.652  32.336  0.00  0.00    +0.000 NA
ATOM      5  C   UNL     1      92.647   0.916  27.954  0.00  0.00    +0.000 A 
ATOM      6  C   UNL     1      92.224   2.364  29.654  0.00  0.00    +0.000 A 
ATOM      7  C   UNL     1      90.455   1.430  28.575  0.00  0.00    +0.000 A 
ATOM      8  C   UNL     1      91.298   0.725  27.740  0.00  0.00    +0.000 A 
ATOM      9  C   UNL     1      94.017   3.462  30.930  0.00  0.00    +0.000 A 
ATOM     10  C   UNL     1      91.948   3.947  31.515  0.00  0.00    +0.000 A 
ATOM     11  C   UNL     1      93.986   4.353  31.976  0.00  0.00    +0.000 A 
ENDROOT
BRANCH   7  15
ATOM     12  F   UNL     1      88.350   2.457  28.095  0.00  0.00    +0.000 F 
ATOM     13  F   UNL     1      88.635   0.404  27.440  0.00  0.00    +0.000 F 
ATOM     14  F   UNL     1      88.348   0.846  29.549  0.00  0.00    +0.000 F 
ATOM     15  C   UNL     1      88.977   1.289  28.420  0.00  0.00    +0.000 C 
ENDBRANCH   7  15
BRANCH   5  18
ATOM     16  O   UNL     1      93.309  -0.142  25.990  0.00  0.00    +0.000 OA
ATOM     17  N   UNL     1      94.914   0.032  27.701  0.00  0.00    +0.000 N 
ATOM     18  C   UNL     1      93.650   0.208  27.115  0.00  0.00    +0.000 C 
ATOM     19  H   UNL     1      95.030   0.387  28.648  0.00  0.00    +0.000 HD
BRANCH  17  22
ATOM     20  N   UNL     1      98.210  -0.378  26.126  0.00  0.00    +0.000 NA
ATOM     21  N   UNL     1      97.249  -2.551  26.522  0.00  0.00    +0.000 NA
ATOM     22  C   UNL     1      96.041  -0.567  27.150  0.00  0.00    +0.000 A 
ATOM     23  C   UNL     1      97.102   0.171  26.667  0.00  0.00    +0.000 A 
ATOM     24  C   UNL     1      96.171  -1.937  27.051  0.00  0.00    +0.000 A 
ATOM     25  C   UNL     1      98.218  -1.724  26.085  0.00  0.00    +0.000 A 
BRANCH  25  26
ATOM     26  O   UNL     1      99.333  -2.317  25.541  0.00  0.00    +0.000 OA
BRANCH  26  27
ATOM     27  C   UNL     1     100.444  -1.467  25.291  0.00  0.00    +0.000 C 
BRANCH  27  28
ATOM     28  C   UNL     1     101.613  -1.917  26.147  0.00  0.00    +0.000 C 
BRANCH  28  29
ATOM     29  O   UNL     1     101.494  -1.334  27.439  0.00  0.00    +0.000 OA
ATOM     30  C   UNL     1     101.559   0.083  27.378  0.00  0.00    +0.000 C 
ENDBRANCH  28  29
ENDBRANCH  27  28
ENDBRANCH  26  27
ENDBRANCH  25  26
ENDBRANCH  17  22
ENDBRANCH   5  18
TORSDOF 7
ENDMDL
MODEL 6
REMARK VINA RESULT:      -6.3      1.890      2.360
REMARK  Name = 168679856
REMARK  8 active torsions:
REMARK  status: ('A' for Active; 'I' for Inactive)
REMARK    1  A    between atoms: O_4  and  C_23
REMARK    2  A    between atoms: O_4  and  C_28
REMARK    3  A    between atoms: O_5  and  C_24
REMARK    4  A    between atoms: O_5  and  C_29
REMARK    5  A    between atoms: N_10  and  C_19
REMARK    6  A    between atoms: C_14  and  C_18
REMARK    7  A    between atoms: C_16  and  C_20
REMARK    8  A    between atoms: C_23  and  C_24
REMARK                            x       y       z     vdW  Elec       q    Type
REMARK                         _______ _______ _______ _____ _____    ______ ____
ROOT
ATOM      1  N   UNL     1      93.328   3.641  28.043  0.00  0.00    +0.000 N 
ATOM      2  N   UNL     1      93.434   1.383  27.491  0.00  0.00    +0.000 NA
ATOM      3  N   UNL     1      91.353   2.415  28.135  0.00  0.00    +0.000 NA
ATOM      4  N   UNL     1      93.636   5.795  28.491  0.00  0.00    +0.000 NA
ATOM      5  C   UNL     1      92.768   0.219  27.346  0.00  0.00    +0.000 A 
ATOM      6  C   UNL     1      92.675   2.425  27.882  0.00  0.00    +0.000 A 
ATOM      7  C   UNL     1      90.752   1.218  27.970  0.00  0.00    +0.000 A 
ATOM      8  C   UNL     1      91.416   0.075  27.573  0.00  0.00    +0.000 A 
ATOM      9  C   UNL     1      94.659   3.878  27.844  0.00  0.00    +0.000 A 
ATOM     10  C   UNL     1      92.755   4.820  28.431  0.00  0.00    +0.000 A 
ATOM     11  C   UNL     1      94.825   5.213  28.126  0.00  0.00    +0.000 A 
ENDROOT
BRANCH   7  15
ATOM     12  F   UNL     1      88.652   2.358  28.057  0.00  0.00    +0.000 F 
ATOM     13  F   UNL     1      88.636   0.277  27.427  0.00  0.00    +0.000 F 
ATOM     14  F   UNL     1      88.975   0.783  29.514  0.00  0.00    +0.000 F 
ATOM     15  C   UNL     1      89.285   1.162  28.239  0.00  0.00    +0.000 C 
ENDBRANCH   7  15
BRANCH   5  18
ATOM     16  O   UNL     1      93.154  -1.642  26.004  0.00  0.00    +0.000 OA
ATOM     17  N   UNL     1      94.805  -1.113  27.594  0.00  0.00    +0.000 N 
ATOM     18  C   UNL     1      93.587  -0.945  26.915  0.00  0.00    +0.000 C 
ATOM     19  H   UNL     1      95.014  -0.439  28.327  0.00  0.00    +0.000 HD
BRANCH  17  22
ATOM     20  N   UNL     1      96.748  -4.212  27.966  0.00  0.00    +0.000 NA
ATOM     21  N   UNL     1      97.708  -2.886  26.199  0.00  0.00    +0.000 NA
ATOM     22  C   UNL     1      95.775  -2.088  27.389  0.00  0.00    +0.000 A 
ATOM     23  C   UNL     1      95.822  -3.246  28.138  0.00  0.00    +0.000 A 
ATOM     24  C   UNL     1      96.753  -1.961  26.424  0.00  0.00    +0.000 A 
ATOM     25  C   UNL     1      97.648  -3.971  26.993  0.00  0.00    +0.000 A 
BRANCH  25  26
ATOM     26  O   UNL     1      98.607  -4.936  26.789  0.00  0.00    +0.000 OA
BRANCH  26  27
ATOM     27  C   UNL     1      99.868  -4.716  27.404  0.00  0.00    +0.000 C 
BRANCH  27  28
ATOM     28  C   UNL     1     100.963  -5.210  26.477  0.00  0.00    +0.000 C 
BRANCH  28  29
ATOM     29  O   UNL     1     100.778  -4.632  25.191  0.00  0.00    +0.000 OA
ATOM     30  C   UNL     1     101.334  -3.327  25.122  0.00  0.00    +0.000 C 
ENDBRANCH  28  29
ENDBRANCH  27  28
ENDBRANCH  26  27
ENDBRANCH  25  26
ENDBRANCH  17  22
ENDBRANCH   5  18
TORSDOF 7
ENDMDL
MODEL 7
REMARK VINA RESULT:      -6.2      3.850      9.714
REMARK  Name = 168679856
REMARK  8 active torsions:
REMARK  status: ('A' for Active; 'I' for Inactive)
REMARK    1  A    between atoms: O_4  and  C_23
REMARK    2  A    between atoms: O_4  and  C_28
REMARK    3  A    between atoms: O_5  and  C_24
REMARK    4  A    between atoms: O_5  and  C_29
REMARK    5  A    between atoms: N_10  and  C_19
REMARK    6  A    between atoms: C_14  and  C_18
REMARK    7  A    between atoms: C_16  and  C_20
REMARK    8  A    between atoms: C_23  and  C_24
REMARK                            x       y       z     vdW  Elec       q    Type
REMARK                         _______ _______ _______ _____ _____    ______ ____
ROOT
ATOM      1  N   UNL     1      94.730  -1.074  27.767  0.00  0.00    +0.000 N 
ATOM      2  N   UNL     1      93.499   0.826  28.307  0.00  0.00    +0.000 NA
ATOM      3  N   UNL     1      92.478  -1.048  27.186  0.00  0.00    +0.000 NA
ATOM      4  N   UNL     1      96.223  -2.682  27.428  0.00  0.00    +0.000 NA
ATOM      5  C   UNL     1      92.303   1.449  28.275  0.00  0.00    +0.000 A 
ATOM      6  C   UNL     1      93.514  -0.402  27.753  0.00  0.00    +0.000 A 
ATOM      7  C   UNL     1      91.313  -0.365  27.188  0.00  0.00    +0.000 A 
ATOM      8  C   UNL     1      91.165   0.898  27.724  0.00  0.00    +0.000 A 
ATOM      9  C   UNL     1      95.905  -0.609  28.287  0.00  0.00    +0.000 A 
ATOM     10  C   UNL     1      94.970  -2.321  27.262  0.00  0.00    +0.000 A 
ATOM     11  C   UNL     1      96.812  -1.619  28.067  0.00  0.00    +0.000 A 
ENDROOT
BRANCH   7  15
ATOM     12  F   UNL     1      88.941  -0.479  26.908  0.00  0.00    +0.000 F 
ATOM     13  F   UNL     1      90.178  -1.026  25.206  0.00  0.00    +0.000 F 
ATOM     14  F   UNL     1      90.020  -2.361  26.914  0.00  0.00    +0.000 F 
ATOM     15  C   UNL     1      90.137  -1.045  26.569  0.00  0.00    +0.000 C 
ENDBRANCH   7  15
BRANCH   5  18
ATOM     16  O   UNL     1      92.592   3.756  28.179  0.00  0.00    +0.000 OA
ATOM     17  N   UNL     1      91.824   2.861  30.214  0.00  0.00    +0.000 N 
ATOM     18  C   UNL     1      92.264   2.806  28.881  0.00  0.00    +0.000 C 
ATOM     19  H   UNL     1      91.586   1.974  30.652  0.00  0.00    +0.000 HD
BRANCH  17  22
ATOM     20  N   UNL     1      90.586   6.085  31.475  0.00  0.00    +0.000 NA
ATOM     21  N   UNL     1      92.265   5.240  32.982  0.00  0.00    +0.000 NA
ATOM     22  C   UNL     1      91.664   3.983  31.021  0.00  0.00    +0.000 A 
ATOM     23  C   UNL     1      90.766   4.984  30.716  0.00  0.00    +0.000 A 
ATOM     24  C   UNL     1      92.394   4.165  32.178  0.00  0.00    +0.000 A 
ATOM     25  C   UNL     1      91.356   6.148  32.578  0.00  0.00    +0.000 A 
BRANCH  25  26
ATOM     26  O   UNL     1      91.197   7.256  33.377  0.00  0.00    +0.000 OA
BRANCH  26  27
ATOM     27  C   UNL     1      89.915   7.439  33.960  0.00  0.00    +0.000 C 
BRANCH  27  28
ATOM     28  C   UNL     1      89.867   6.709  35.290  0.00  0.00    +0.000 C 
BRANCH  28  29
ATOM     29  O   UNL     1      88.706   5.891  35.329  0.00  0.00    +0.000 OA
ATOM     30  C   UNL     1      89.040   4.510  35.294  0.00  0.00    +0.000 C 
ENDBRANCH  28  29
ENDBRANCH  27  28
ENDBRANCH  26  27
ENDBRANCH  25  26
ENDBRANCH  17  22
ENDBRANCH   5  18
TORSDOF 7
ENDMDL
MODEL 8
REMARK VINA RESULT:      -6.2      3.124      3.550
REMARK  Name = 168679856
REMARK  8 active torsions:
REMARK  status: ('A' for Active; 'I' for Inactive)
REMARK    1  A    between atoms: O_4  and  C_23
REMARK    2  A    between atoms: O_4  and  C_28
REMARK    3  A    between atoms: O_5  and  C_24
REMARK    4  A    between atoms: O_5  and  C_29
REMARK    5  A    between atoms: N_10  and  C_19
REMARK    6  A    between atoms: C_14  and  C_18
REMARK    7  A    between atoms: C_16  and  C_20
REMARK    8  A    between atoms: C_23  and  C_24
REMARK                            x       y       z     vdW  Elec       q    Type
REMARK                         _______ _______ _______ _____ _____    ______ ____
ROOT
ATOM      1  N   UNL     1      92.284   3.582  28.795  0.00  0.00    +0.000 N 
ATOM      2  N   UNL     1      93.574   1.799  28.040  0.00  0.00    +0.000 NA
ATOM      3  N   UNL     1      93.468   3.872  26.814  0.00  0.00    +0.000 NA
ATOM      4  N   UNL     1      90.955   5.029  29.832  0.00  0.00    +0.000 NA
ATOM      5  C   UNL     1      94.410   1.326  27.093  0.00  0.00    +0.000 A 
ATOM      6  C   UNL     1      93.148   3.061  27.840  0.00  0.00    +0.000 A 
ATOM      7  C   UNL     1      94.308   3.334  25.905  0.00  0.00    +0.000 A 
ATOM      8  C   UNL     1      94.816   2.054  25.994  0.00  0.00    +0.000 A 
ATOM      9  C   UNL     1      91.828   2.939  29.912  0.00  0.00    +0.000 A 
ATOM     10  C   UNL     1      91.733   4.833  28.790  0.00  0.00    +0.000 A 
ATOM     11  C   UNL     1      91.011   3.851  30.535  0.00  0.00    +0.000 A 
ENDROOT
BRANCH   7  15
ATOM     12  F   UNL     1      93.701   5.058  24.365  0.00  0.00    +0.000 F 
ATOM     13  F   UNL     1      95.773   4.983  25.019  0.00  0.00    +0.000 F 
ATOM     14  F   UNL     1      95.015   3.499  23.624  0.00  0.00    +0.000 F 
ATOM     15  C   UNL     1      94.690   4.199  24.750  0.00  0.00    +0.000 C 
ENDBRANCH   7  15
BRANCH   5  18
ATOM     16  O   UNL     1      94.084  -0.901  27.683  0.00  0.00    +0.000 OA
ATOM     17  N   UNL     1      96.246  -0.288  26.988  0.00  0.00    +0.000 N 
ATOM     18  C   UNL     1      94.893  -0.066  27.294  0.00  0.00    +0.000 C 
ATOM     19  H   UNL     1      96.779   0.519  26.672  0.00  0.00    +0.000 HD
BRANCH  17  22
ATOM     20  N   UNL     1      98.015  -3.341  25.955  0.00  0.00    +0.000 NA
ATOM     21  N   UNL     1      98.035  -3.192  28.360  0.00  0.00    +0.000 NA
ATOM     22  C   UNL     1      96.958  -1.480  27.056  0.00  0.00    +0.000 A 
ATOM     23  C   UNL     1      97.324  -2.182  25.926  0.00  0.00    +0.000 A 
ATOM     24  C   UNL     1      97.344  -2.038  28.257  0.00  0.00    +0.000 A 
ATOM     25  C   UNL     1      98.334  -3.782  27.187  0.00  0.00    +0.000 A 
BRANCH  25  26
ATOM     26  O   UNL     1      99.039  -4.961  27.255  0.00  0.00    +0.000 OA
BRANCH  26  27
ATOM     27  C   UNL     1     100.264  -5.009  26.536  0.00  0.00    +0.000 C 
BRANCH  27  28
ATOM     28  C   UNL     1     101.324  -4.255  27.315  0.00  0.00    +0.000 C 
BRANCH  28  29
ATOM     29  O   UNL     1     102.146  -3.535  26.404  0.00  0.00    +0.000 OA
ATOM     30  C   UNL     1     101.526  -3.409  25.132  0.00  0.00    +0.000 C 
ENDBRANCH  28  29
ENDBRANCH  27  28
ENDBRANCH  26  27
ENDBRANCH  25  26
ENDBRANCH  17  22
ENDBRANCH   5  18
TORSDOF 7
ENDMDL
MODEL 9
REMARK VINA RESULT:      -6.2      4.372      5.594
REMARK  Name = 168679856
REMARK  8 active torsions:
REMARK  status: ('A' for Active; 'I' for Inactive)
REMARK    1  A    between atoms: O_4  and  C_23
REMARK    2  A    between atoms: O_4  and  C_28
REMARK    3  A    between atoms: O_5  and  C_24
REMARK    4  A    between atoms: O_5  and  C_29
REMARK    5  A    between atoms: N_10  and  C_19
REMARK    6  A    between atoms: C_14  and  C_18
REMARK    7  A    between atoms: C_16  and  C_20
REMARK    8  A    between atoms: C_23  and  C_24
REMARK                            x       y       z     vdW  Elec       q    Type
REMARK                         _______ _______ _______ _____ _____    ______ ____
ROOT
ATOM      1  N   UNL     1      92.190   4.180  28.965  0.00  0.00    +0.000 N 
ATOM      2  N   UNL     1      93.409   2.279  28.401  0.00  0.00    +0.000 NA
ATOM      3  N   UNL     1      93.411   4.231  26.986  0.00  0.00    +0.000 NA
ATOM      4  N   UNL     1      90.914   5.774  29.839  0.00  0.00    +0.000 NA
ATOM      5  C   UNL     1      94.234   1.683  27.517  0.00  0.00    +0.000 A 
ATOM      6  C   UNL     1      93.042   3.535  28.078  0.00  0.00    +0.000 A 
ATOM      7  C   UNL     1      94.238   3.573  26.145  0.00  0.00    +0.000 A 
ATOM      8  C   UNL     1      94.687   2.286  26.362  0.00  0.00    +0.000 A 
ATOM      9  C   UNL     1      91.691   3.664  30.128  0.00  0.00    +0.000 A 
ATOM     10  C   UNL     1      91.696   5.448  28.834  0.00  0.00    +0.000 A 
ATOM     11  C   UNL     1      90.908   4.666  30.650  0.00  0.00    +0.000 A 
ENDROOT
BRANCH   7  15
ATOM     12  F   UNL     1      93.749   5.206  24.469  0.00  0.00    +0.000 F 
ATOM     13  F   UNL     1      95.815   5.028  25.121  0.00  0.00    +0.000 F 
ATOM     14  F   UNL     1      94.934   3.495  23.856  0.00  0.00    +0.000 F 
ATOM     15  C   UNL     1      94.673   4.309  24.922  0.00  0.00    +0.000 C 
ENDBRANCH   7  15
BRANCH   5  18
ATOM     16  O   UNL     1      94.637  -0.539  26.957  0.00  0.00    +0.000 OA
ATOM     17  N   UNL     1      95.049   0.091  29.186  0.00  0.00    +0.000 N 
ATOM     18  C   UNL     1      94.651   0.296  27.855  0.00  0.00    +0.000 C 
ATOM     19  H   UNL     1      95.003   0.898  29.804  0.00  0.00    +0.000 HD
BRANCH  17  22
ATOM     20  N   UNL     1      97.239  -2.725  30.074  0.00  0.00    +0.000 NA
ATOM     21  N   UNL     1      95.144  -2.956  31.241  0.00  0.00    +0.000 NA
ATOM     22  C   UNL     1      95.506  -1.083  29.775  0.00  0.00    +0.000 A 
ATOM     23  C   UNL     1      96.764  -1.591  29.520  0.00  0.00    +0.000 A 
ATOM     24  C   UNL     1      94.733  -1.815  30.652  0.00  0.00    +0.000 A 
ATOM     25  C   UNL     1      96.390  -3.349  30.912  0.00  0.00    +0.000 A 
BRANCH  25  26
ATOM     26  O   UNL     1      96.843  -4.509  31.496  0.00  0.00    +0.000 OA
BRANCH  26  27
ATOM     27  C   UNL     1      96.576  -4.667  32.883  0.00  0.00    +0.000 C 
BRANCH  27  28
ATOM     28  C   UNL     1      97.749  -4.123  33.676  0.00  0.00    +0.000 C 
BRANCH  28  29
ATOM     29  O   UNL     1      97.281  -3.648  34.932  0.00  0.00    +0.000 OA
ATOM     30  C   UNL     1      96.333  -4.538  35.504  0.00  0.00    +0.000 C 
ENDBRANCH  28  29
ENDBRANCH  27  28
ENDBRANCH  26  27
ENDBRANCH  25  26
ENDBRANCH  17  22
ENDBRANCH   5  18
TORSDOF 7
ENDMDL
