REMARK  Name = 155598690
REMARK  7 active torsions:
REMARK  status: ('A' for Active; 'I' for Inactive)
REMARK    1  A    between atoms: O_1  and  C_11
REMARK    2  A    between atoms: O_1  and  C_16
REMARK    3  A    between atoms: O_3  and  C_19
REMARK    4  A    between atoms: O_3  and  C_25
REMARK    5  A    between atoms: N_4  and  C_10
REMARK    6  A    between atoms: C_16  and  C_19
REMARK    7  A    between atoms: C_17  and  C_18
REMARK                            x       y       z     vdW  Elec       q    Type
REMARK                         _______ _______ _______ _____ _____    ______ ____
ROOT
ATOM      1  O   UNL     1       0.224   2.410   0.312  0.00  0.00    +0.000 OA
ATOM      2  N   UNL     1      -0.196   0.131   0.389  0.00  0.00    +0.000 N 
ATOM      3  C   UNL     1       0.619   1.248   0.289  0.00  0.00    +0.000 C 
ATOM      4  H   UNL     1       0.220  -0.793   0.305  0.00  0.00    +0.000 HD
ENDROOT
BRANCH   3  10
ATOM      5  N   UNL     1       2.472  -0.311   0.077  0.00  0.00    +0.000 NA
ATOM      6  N   UNL     1       2.952   3.337   0.010  0.00  0.00    +0.000 N 
ATOM      7  N   UNL     1       4.799   0.346  -0.199  0.00  0.00    +0.000 NA
ATOM      8  N   UNL     1       4.168  -1.884  -0.117  0.00  0.00    +0.000 N 
ATOM      9  N   UNL     1       5.468  -3.678  -0.262  0.00  0.00    +0.000 NA
ATOM     10  C   UNL     1       2.070   0.978   0.120  0.00  0.00    +0.000 A 
ATOM     11  C   UNL     1       3.029   1.968   0.005  0.00  0.00    +0.000 A 
ATOM     12  C   UNL     1       4.370   1.631  -0.152  0.00  0.00    +0.000 A 
ATOM     13  C   UNL     1       3.794  -0.545  -0.078  0.00  0.00    +0.000 A 
ATOM     14  C   UNL     1       5.107   2.837  -0.242  0.00  0.00    +0.000 A 
ATOM     15  C   UNL     1       4.206   3.874  -0.139  0.00  0.00    +0.000 A 
ATOM     16  C   UNL     1       3.333  -2.960  -0.016  0.00  0.00    +0.000 A 
ATOM     17  C   UNL     1       5.439  -2.364  -0.264  0.00  0.00    +0.000 A 
ATOM     18  C   UNL     1       4.158  -4.056  -0.108  0.00  0.00    +0.000 A 
ATOM     19  H   UNL     1       2.100   3.874   0.109  0.00  0.00    +0.000 HD
ENDBRANCH   3  10
BRANCH   2  20
ATOM     20  C   UNL     1      -1.629   0.228   0.531  0.00  0.00    +0.000 C 
ATOM     21  C   UNL     1      -4.362  -0.810   0.115  0.00  0.00    +0.000 C 
ATOM     22  C   UNL     1      -2.301   0.295  -0.843  0.00  0.00    +0.000 C 
ATOM     23  C   UNL     1      -2.170  -0.937   1.365  0.00  0.00    +0.000 C 
ATOM     24  C   UNL     1      -3.821   0.351  -0.717  0.00  0.00    +0.000 C 
ATOM     25  C   UNL     1      -3.690  -0.876   1.484  0.00  0.00    +0.000 C 
BRANCH  21  26
ATOM     26  O   UNL     1      -5.764  -0.652   0.302  0.00  0.00    +0.000 OA
BRANCH  26  27
ATOM     27  C   UNL     1      -6.490  -1.034  -0.857  0.00  0.00    +0.000 C 
BRANCH  27  28
ATOM     28  C   UNL     1      -7.972  -0.839  -0.600  0.00  0.00    +0.000 C 
BRANCH  28  29
ATOM     29  O   UNL     1      -8.219   0.536  -0.332  0.00  0.00    +0.000 OA
ATOM     30  C   UNL     1      -9.596   0.777  -0.077  0.00  0.00    +0.000 C 
ENDBRANCH  28  29
ENDBRANCH  27  28
ENDBRANCH  26  27
ENDBRANCH  21  26
ENDBRANCH   2  20
TORSDOF 6
