REMARK  Name = 168679856
REMARK  8 active torsions:
REMARK  status: ('A' for Active; 'I' for Inactive)
REMARK    1  A    between atoms: O_4  and  C_23
REMARK    2  A    between atoms: O_4  and  C_28
REMARK    3  A    between atoms: O_5  and  C_24
REMARK    4  A    between atoms: O_5  and  C_29
REMARK    5  A    between atoms: N_10  and  C_19
REMARK    6  A    between atoms: C_14  and  C_18
REMARK    7  A    between atoms: C_16  and  C_20
REMARK    8  A    between atoms: C_23  and  C_24
REMARK                            x       y       z     vdW  Elec       q    Type
REMARK                         _______ _______ _______ _____ _____    ______ ____
ROOT
ATOM      1  N   UNL     1       3.808   2.106  -0.029  0.00  0.00    +0.000 N 
ATOM      2  N   UNL     1       2.068   0.561   0.004  0.00  0.00    +0.000 NA
ATOM      3  N   UNL     1       4.370  -0.151  -0.058  0.00  0.00    +0.000 NA
ATOM      4  N   UNL     1       5.164   3.865  -0.051  0.00  0.00    +0.000 NA
ATOM      5  C   UNL     1       1.705  -0.738   0.003  0.00  0.00    +0.000 A 
ATOM      6  C   UNL     1       3.397   0.779  -0.027  0.00  0.00    +0.000 A 
ATOM      7  C   UNL     1       3.935  -1.429  -0.057  0.00  0.00    +0.000 A 
ATOM      8  C   UNL     1       2.602  -1.785  -0.026  0.00  0.00    +0.000 A 
ATOM      9  C   UNL     1       2.996   3.205  -0.002  0.00  0.00    +0.000 A 
ATOM     10  C   UNL     1       5.100   2.552  -0.058  0.00  0.00    +0.000 A 
ATOM     11  C   UNL     1       3.855   4.278  -0.016  0.00  0.00    +0.000 A 
ENDROOT
BRANCH   7  15
ATOM     12  F   UNL     1       5.784  -2.432  -1.193  0.00  0.00    +0.000 F 
ATOM     13  F   UNL     1       5.824  -2.433   0.981  0.00  0.00    +0.000 F 
ATOM     14  F   UNL     1       4.474  -3.761  -0.086  0.00  0.00    +0.000 F 
ATOM     15  C   UNL     1       4.981  -2.493  -0.090  0.00  0.00    +0.000 C 
ENDBRANCH   7  15
BRANCH   5  18
ATOM     16  O   UNL     1      -0.128  -2.170   0.059  0.00  0.00    +0.000 OA
ATOM     17  N   UNL     1      -0.578   0.139   0.065  0.00  0.00    +0.000 N 
ATOM     18  C   UNL     1       0.242  -1.001   0.037  0.00  0.00    +0.000 C 
ATOM     19  H   UNL     1      -0.105   1.040   0.044  0.00  0.00    +0.000 HD
BRANCH  17  22
ATOM     20  N   UNL     1      -4.096  -0.917   0.219  0.00  0.00    +0.000 NA
ATOM     21  N   UNL     1      -3.994   1.490   0.202  0.00  0.00    +0.000 NA
ATOM     22  C   UNL     1      -1.966   0.198   0.123  0.00  0.00    +0.000 A 
ATOM     23  C   UNL     1      -2.748  -0.938   0.162  0.00  0.00    +0.000 A 
ATOM     24  C   UNL     1      -2.650   1.396   0.146  0.00  0.00    +0.000 A 
ATOM     25  C   UNL     1      -4.646   0.312   0.236  0.00  0.00    +0.000 A 
BRANCH  25  26
ATOM     26  O   UNL     1      -6.019   0.371   0.295  0.00  0.00    +0.000 OA
BRANCH  26  27
ATOM     27  C   UNL     1      -6.706  -0.872   0.331  0.00  0.00    +0.000 C 
BRANCH  27  28
ATOM     28  C   UNL     1      -8.199  -0.610   0.388  0.00  0.00    +0.000 C 
BRANCH  28  29
ATOM     29  O   UNL     1      -8.591   0.100  -0.780  0.00  0.00    +0.000 OA
ATOM     30  C   UNL     1      -9.984   0.378  -0.777  0.00  0.00    +0.000 C 
ENDBRANCH  28  29
ENDBRANCH  27  28
ENDBRANCH  26  27
ENDBRANCH  25  26
ENDBRANCH  17  22
ENDBRANCH   5  18
TORSDOF 7
