REMARK  Name = 118736856
REMARK  9 active torsions:
REMARK  status: ('A' for Active; 'I' for Inactive)
REMARK    1  A    between atoms: O_2  and  C_11
REMARK    2  A    between atoms: O_2  and  C_15
REMARK    3  A    between atoms: O_3  and  C_19
REMARK    4  A    between atoms: O_3  and  C_27
REMARK    5  A    between atoms: N_5  and  C_8
REMARK    6  A    between atoms: N_5  and  C_14
REMARK    7  A    between atoms: N_6  and  C_25
REMARK    8  A    between atoms: C_15  and  C_19
REMARK    9  A    between atoms: C_23  and  C_26
REMARK                            x       y       z     vdW  Elec       q    Type
REMARK                         _______ _______ _______ _____ _____    ______ ____
ROOT
ATOM      1  O   UNL     1       0.286  -4.487   0.145  0.00  0.00    +0.000 OA
ATOM      2  N   UNL     1       2.264  -3.268  -0.038  0.00  0.00    +0.000 N 
ATOM      3  C   UNL     1       0.642  -0.943   0.280  0.00  0.00    +0.000 A 
ATOM      4  C   UNL     1       2.108  -0.817   0.105  0.00  0.00    +0.000 A 
ATOM      5  C   UNL     1       0.102  -2.170   0.285  0.00  0.00    +0.000 A 
ATOM      6  C   UNL     1       2.893  -1.981  -0.051  0.00  0.00    +0.000 A 
ATOM      7  C   UNL     1       2.754   0.435   0.087  0.00  0.00    +0.000 A 
ATOM      8  C   UNL     1       0.890  -3.414   0.125  0.00  0.00    +0.000 A 
ATOM      9  C   UNL     1       4.287  -1.855  -0.217  0.00  0.00    +0.000 A 
ATOM     10  C   UNL     1       4.136   0.540  -0.079  0.00  0.00    +0.000 A 
ATOM     11  C   UNL     1       4.902  -0.605  -0.230  0.00  0.00    +0.000 A 
ATOM     12  C   UNL     1       3.090  -4.463  -0.200  0.00  0.00    +0.000 C 
ENDROOT
BRANCH  10  15
ATOM     13  S   UNL     1       5.646   2.350  -1.472  0.00  0.00    +0.000 S 
ATOM     14  N   UNL     1       5.505   3.966   0.541  0.00  0.00    +0.000 NA
ATOM     15  C   UNL     1       4.767   1.837  -0.091  0.00  0.00    +0.000 A 
ATOM     16  C   UNL     1       4.801   2.824   0.872  0.00  0.00    +0.000 A 
ATOM     17  C   UNL     1       5.994   3.828  -0.671  0.00  0.00    +0.000 A 
ENDBRANCH  10  15
BRANCH   3  18
ATOM     18  N   UNL     1      -0.132   0.176   0.433  0.00  0.00    +0.000 N 
ATOM     19  H   UNL     1       0.289   1.085   0.293  0.00  0.00    +0.000 HD
BRANCH  18  20
ATOM     20  C   UNL     1      -1.567   0.129   0.609  0.00  0.00    +0.000 C 
ATOM     21  C   UNL     1      -2.044   1.428   1.264  0.00  0.00    +0.000 C 
ATOM     22  C   UNL     1      -2.240  -0.095  -0.747  0.00  0.00    +0.000 C 
ATOM     23  C   UNL     1      -4.238   1.246   0.025  0.00  0.00    +0.000 C 
ATOM     24  C   UNL     1      -3.565   1.468   1.378  0.00  0.00    +0.000 C 
ATOM     25  C   UNL     1      -3.761  -0.050  -0.630  0.00  0.00    +0.000 C 
BRANCH  23  26
ATOM     26  O   UNL     1      -5.647   1.192   0.222  0.00  0.00    +0.000 OA
BRANCH  26  27
ATOM     27  C   UNL     1      -6.350   1.444  -0.986  0.00  0.00    +0.000 C 
BRANCH  27  28
ATOM     28  C   UNL     1      -7.840   1.350  -0.719  0.00  0.00    +0.000 C 
BRANCH  28  29
ATOM     29  O   UNL     1      -8.149   0.038  -0.265  0.00  0.00    +0.000 OA
ATOM     30  C   UNL     1      -9.533  -0.102   0.022  0.00  0.00    +0.000 C 
ENDBRANCH  28  29
ENDBRANCH  27  28
ENDBRANCH  26  27
ENDBRANCH  23  26
ENDBRANCH  18  20
ENDBRANCH   3  18
TORSDOF 7
