REMARK  Name = 441667
REMARK  12 active torsions:
REMARK  status: ('A' for Active; 'I' for Inactive)
REMARK    1  A    between atoms: O_2  and  C_16
REMARK    2  A    between atoms: O_2  and  C_18
REMARK    3  A    between atoms: O_3  and  C_12
REMARK    4  A    between atoms: O_4  and  C_13
REMARK    5  A    between atoms: O_5  and  C_14
REMARK    6  A    between atoms: O_6  and  C_17
REMARK    7  A    between atoms: O_8  and  C_24
REMARK    8  A    between atoms: O_9  and  C_29
REMARK    9  A    between atoms: O_10  and  C_30
REMARK   10  A    between atoms: O_11  and  C_32
REMARK   11  A    between atoms: C_15  and  C_17
REMARK   12  A    between atoms: C_19  and  C_23
REMARK                            x       y       z     vdW  Elec       q    Type
REMARK                         _______ _______ _______ _____ _____    ______ ____
ROOT
ATOM      1  O   UNL     1      -2.084  -1.494  -0.212  0.00  0.00    +0.000 OA
ATOM      2  C   UNL     1      -0.623   0.064   1.042  0.00  0.00    +0.000 A 
ATOM      3  C   UNL     1      -0.937  -1.223   0.345  0.00  0.00    +0.000 A 
ATOM      4  C   UNL     1      -1.616   0.959   1.126  0.00  0.00    +0.000 A 
ATOM      5  C   UNL     1      -2.925   0.675   0.548  0.00  0.00    +0.000 A 
ATOM      6  C   UNL     1      -3.115  -0.541  -0.115  0.00  0.00    +0.000 A 
ATOM      7  C   UNL     1      -3.978   1.591   0.629  0.00  0.00    +0.000 A 
ATOM      8  C   UNL     1      -4.349  -0.841  -0.694  0.00  0.00    +0.000 A 
ATOM      9  C   UNL     1      -5.212   1.289   0.050  0.00  0.00    +0.000 A 
ATOM     10  C   UNL     1      -5.397   0.075  -0.611  0.00  0.00    +0.000 A 
ENDROOT
BRANCH   3  11
ATOM     11  C   UNL     1       0.141  -2.237   0.264  0.00  0.00    +0.000 A 
ATOM     12  C   UNL     1       1.011  -2.231  -0.820  0.00  0.00    +0.000 A 
ATOM     13  C   UNL     1       0.271  -3.184   1.274  0.00  0.00    +0.000 A 
ATOM     14  C   UNL     1       2.026  -3.186  -0.895  0.00  0.00    +0.000 A 
ATOM     15  C   UNL     1       1.286  -4.138   1.198  0.00  0.00    +0.000 A 
ATOM     16  C   UNL     1       2.163  -4.139   0.114  0.00  0.00    +0.000 A 
BRANCH  14  17
ATOM     17  O   UNL     1       2.876  -3.176  -1.959  0.00  0.00    +0.000 OA
ATOM     18  H   UNL     1       3.513  -3.904  -1.848  0.00  0.00    +0.000 HD
ENDBRANCH  14  17
BRANCH  16  19
ATOM     19  O   UNL     1       3.149  -5.077   0.051  0.00  0.00    +0.000 OA
ATOM     20  H   UNL     1       3.091  -5.651   0.834  0.00  0.00    +0.000 HD
ENDBRANCH  16  19
ENDBRANCH   3  11
BRANCH   7  21
ATOM     21  O   UNL     1      -3.836   2.790   1.263  0.00  0.00    +0.000 OA
ATOM     22  H   UNL     1      -2.910   3.078   1.240  0.00  0.00    +0.000 HD
ENDBRANCH   7  21
BRANCH  10  23
ATOM     23  O   UNL     1      -6.601  -0.216  -1.175  0.00  0.00    +0.000 OA
ATOM     24  H   UNL     1      -6.551  -1.095  -1.589  0.00  0.00    +0.000 HD
ENDBRANCH  10  23
BRANCH   2  25
ATOM     25  O   UNL     1       0.646   0.308   1.515  0.00  0.00    +0.000 OA
BRANCH  25  31
ATOM     26  O   UNL     1       1.307   1.202  -0.536  0.00  0.00    +0.000 OA
ATOM     27  C   UNL     1       3.407   2.719   0.705  0.00  0.00    +0.000 C 
ATOM     28  C   UNL     1       3.321   2.524  -0.809  0.00  0.00    +0.000 C 
ATOM     29  C   UNL     1       2.641   1.624   1.448  0.00  0.00    +0.000 C 
ATOM     30  C   UNL     1       1.871   2.306  -1.247  0.00  0.00    +0.000 C 
ATOM     31  C   UNL     1       1.240   1.434   0.869  0.00  0.00    +0.000 C 
BRANCH  27  32
ATOM     32  O   UNL     1       4.785   2.674   1.079  0.00  0.00    +0.000 OA
ATOM     33  H   UNL     1       5.131   1.793   0.853  0.00  0.00    +0.000 HD
ENDBRANCH  27  32
BRANCH  28  34
ATOM     34  O   UNL     1       3.843   3.677  -1.464  0.00  0.00    +0.000 OA
ATOM     35  H   UNL     1       4.005   3.444  -2.393  0.00  0.00    +0.000 HD
ENDBRANCH  28  34
BRANCH  29  36
ATOM     36  O   UNL     1       2.511   1.987   2.823  0.00  0.00    +0.000 OA
ATOM     37  H   UNL     1       2.008   1.281   3.264  0.00  0.00    +0.000 HD
ENDBRANCH  29  36
BRANCH  30  38
ATOM     38  C   UNL     1       1.772   1.993  -2.737  0.00  0.00    +0.000 C 
BRANCH  38  39
ATOM     39  O   UNL     1       0.409   1.794  -3.066  0.00  0.00    +0.000 OA
ATOM     40  H   UNL     1       0.074   1.069  -2.510  0.00  0.00    +0.000 HD
ENDBRANCH  38  39
ENDBRANCH  30  38
ENDBRANCH  25  31
ENDBRANCH   2  25
TORSDOF 12
