REMARK VINA RESULT:      -6.3      0.000      0.000
REMARK  Name = 5280443
REMARK  4 active torsions:
REMARK  status: ('A' for Active; 'I' for Inactive)
REMARK    1  A    between atoms: O_2  and  C_12
REMARK    2  A    between atoms: O_4  and  C_14
REMARK    3  A    between atoms: O_5  and  C_20
REMARK    4  A    between atoms: C_8  and  C_9
REMARK                            x       y       z     vdW  Elec       q    Type
REMARK                         _______ _______ _______ _____ _____    ______ ____
ROOT
ATOM      1  O   UNL     1      90.382  -1.947  23.031  0.00  0.00    +0.000 OA
ATOM      2  O   UNL     1      88.692   0.084  26.131  0.00  0.00    +0.000 OA
ATOM      3  C   UNL     1      90.067  -1.704  25.427  0.00  0.00    +0.000 A 
ATOM      4  C   UNL     1      90.613  -2.352  24.321  0.00  0.00    +0.000 A 
ATOM      5  C   UNL     1      89.560  -0.850  22.820  0.00  0.00    +0.000 A 
ATOM      6  C   UNL     1      89.203  -0.533  25.208  0.00  0.00    +0.000 A 
ATOM      7  C   UNL     1      88.982  -0.139  23.802  0.00  0.00    +0.000 A 
ATOM      8  C   UNL     1      90.338  -2.160  26.718  0.00  0.00    +0.000 A 
ATOM      9  C   UNL     1      91.438  -3.463  24.501  0.00  0.00    +0.000 A 
ATOM     10  C   UNL     1      91.711  -3.922  25.789  0.00  0.00    +0.000 A 
ATOM     11  C   UNL     1      91.162  -3.272  26.896  0.00  0.00    +0.000 A 
ENDROOT
BRANCH   5  12
ATOM     12  C   UNL     1      89.383  -0.497  21.398  0.00  0.00    +0.000 A 
ATOM     13  C   UNL     1      88.103  -0.466  20.837  0.00  0.00    +0.000 A 
ATOM     14  C   UNL     1      90.493  -0.193  20.606  0.00  0.00    +0.000 A 
ATOM     15  C   UNL     1      87.936  -0.131  19.493  0.00  0.00    +0.000 A 
ATOM     16  C   UNL     1      90.325   0.140  19.263  0.00  0.00    +0.000 A 
ATOM     17  C   UNL     1      89.046   0.171  18.705  0.00  0.00    +0.000 A 
BRANCH  17  18
ATOM     18  O   UNL     1      88.883   0.497  17.395  0.00  0.00    +0.000 OA
ATOM     19  H   UNL     1      89.713   0.316  16.919  0.00  0.00    +0.000 HD
ENDBRANCH  17  18
ENDBRANCH   5  12
BRANCH   8  20
ATOM     20  O   UNL     1      89.828  -1.561  27.831  0.00  0.00    +0.000 OA
ATOM     21  H   UNL     1      90.515  -1.049  28.286  0.00  0.00    +0.000 HD
ENDBRANCH   8  20
BRANCH  10  22
ATOM     22  O   UNL     1      92.515  -5.006  25.968  0.00  0.00    +0.000 OA
ATOM     23  H   UNL     1      91.965  -5.772  26.207  0.00  0.00    +0.000 HD
ENDBRANCH  10  22
TORSDOF 4
