REMARK VINA RESULT:      -6.0      2.538      6.283
REMARK  Name = 5280443
REMARK  4 active torsions:
REMARK  status: ('A' for Active; 'I' for Inactive)
REMARK    1  A    between atoms: O_2  and  C_12
REMARK    2  A    between atoms: O_4  and  C_14
REMARK    3  A    between atoms: O_5  and  C_20
REMARK    4  A    between atoms: C_8  and  C_9
REMARK                            x       y       z     vdW  Elec       q    Type
REMARK                         _______ _______ _______ _____ _____    ______ ____
ROOT
ATOM      1  O   UNL     1      90.296  -1.404  25.146  0.00  0.00    +0.000 OA
ATOM      2  O   UNL     1      88.735   0.521  21.912  0.00  0.00    +0.000 OA
ATOM      3  C   UNL     1      90.336  -1.002  22.751  0.00  0.00    +0.000 A 
ATOM      4  C   UNL     1      90.821  -1.627  23.897  0.00  0.00    +0.000 A 
ATOM      5  C   UNL     1      89.244  -0.510  25.269  0.00  0.00    +0.000 A 
ATOM      6  C   UNL     1      89.212  -0.061  22.876  0.00  0.00    +0.000 A 
ATOM      7  C   UNL     1      88.686   0.148  24.240  0.00  0.00    +0.000 A 
ATOM      8  C   UNL     1      90.908  -1.269  21.505  0.00  0.00    +0.000 A 
ATOM      9  C   UNL     1      91.883  -2.526  23.806  0.00  0.00    +0.000 A 
ATOM     10  C   UNL     1      92.459  -2.796  22.564  0.00  0.00    +0.000 A 
ATOM     11  C   UNL     1      91.972  -2.168  21.415  0.00  0.00    +0.000 A 
ENDROOT
BRANCH   5  12
ATOM     12  C   UNL     1      88.754  -0.348  26.652  0.00  0.00    +0.000 A 
ATOM     13  C   UNL     1      89.647  -0.039  27.682  0.00  0.00    +0.000 A 
ATOM     14  C   UNL     1      87.395  -0.503  26.939  0.00  0.00    +0.000 A 
ATOM     15  C   UNL     1      89.184   0.115  28.988  0.00  0.00    +0.000 A 
ATOM     16  C   UNL     1      86.933  -0.350  28.245  0.00  0.00    +0.000 A 
ATOM     17  C   UNL     1      87.827  -0.041  29.271  0.00  0.00    +0.000 A 
BRANCH  17  18
ATOM     18  O   UNL     1      87.375   0.109  30.545  0.00  0.00    +0.000 OA
ATOM     19  H   UNL     1      86.573  -0.430  30.660  0.00  0.00    +0.000 HD
ENDBRANCH  17  18
ENDBRANCH   5  12
BRANCH   8  20
ATOM     20  O   UNL     1      90.470  -0.685  20.355  0.00  0.00    +0.000 OA
ATOM     21  H   UNL     1      90.840   0.207  20.265  0.00  0.00    +0.000 HD
ENDBRANCH   8  20
BRANCH  10  22
ATOM     22  O   UNL     1      93.496  -3.673  22.470  0.00  0.00    +0.000 OA
ATOM     23  H   UNL     1      93.150  -4.579  22.537  0.00  0.00    +0.000 HD
ENDBRANCH  10  22
TORSDOF 4
