REMARK VINA RESULT:      -6.3      2.201      6.900
REMARK  Name = 5280443
REMARK  4 active torsions:
REMARK  status: ('A' for Active; 'I' for Inactive)
REMARK    1  A    between atoms: O_2  and  C_12
REMARK    2  A    between atoms: O_4  and  C_14
REMARK    3  A    between atoms: O_5  and  C_20
REMARK    4  A    between atoms: C_8  and  C_9
REMARK                            x       y       z     vdW  Elec       q    Type
REMARK                         _______ _______ _______ _____ _____    ______ ____
ROOT
ATOM      1  O   UNL     1      89.015  -0.098  24.279  0.00  0.00    +0.000 OA
ATOM      2  O   UNL     1      92.144  -2.631  23.653  0.00  0.00    +0.000 OA
ATOM      3  C   UNL     1      90.565  -1.138  22.724  0.00  0.00    +0.000 A 
ATOM      4  C   UNL     1      89.500  -0.287  23.009  0.00  0.00    +0.000 A 
ATOM      5  C   UNL     1      89.609  -0.793  25.322  0.00  0.00    +0.000 A 
ATOM      6  C   UNL     1      91.204  -1.870  23.829  0.00  0.00    +0.000 A 
ATOM      7  C   UNL     1      90.645  -1.635  25.176  0.00  0.00    +0.000 A 
ATOM      8  C   UNL     1      91.016  -1.290  21.412  0.00  0.00    +0.000 A 
ATOM      9  C   UNL     1      88.877   0.420  21.980  0.00  0.00    +0.000 A 
ATOM     10  C   UNL     1      89.325   0.272  20.667  0.00  0.00    +0.000 A 
ATOM     11  C   UNL     1      90.393  -0.583  20.383  0.00  0.00    +0.000 A 
ENDROOT
BRANCH   5  12
ATOM     12  C   UNL     1      89.015  -0.513  26.644  0.00  0.00    +0.000 A 
ATOM     13  C   UNL     1      89.830  -0.123  27.711  0.00  0.00    +0.000 A 
ATOM     14  C   UNL     1      87.637  -0.635  26.835  0.00  0.00    +0.000 A 
ATOM     15  C   UNL     1      89.269   0.143  28.960  0.00  0.00    +0.000 A 
ATOM     16  C   UNL     1      87.077  -0.369  28.084  0.00  0.00    +0.000 A 
ATOM     17  C   UNL     1      87.892   0.019  29.147  0.00  0.00    +0.000 A 
BRANCH  17  18
ATOM     18  O   UNL     1      87.345   0.279  30.365  0.00  0.00    +0.000 OA
ATOM     19  H   UNL     1      86.997  -0.550  30.737  0.00  0.00    +0.000 HD
ENDBRANCH  17  18
ENDBRANCH   5  12
BRANCH   8  20
ATOM     20  O   UNL     1      92.054  -2.109  21.082  0.00  0.00    +0.000 OA
ATOM     21  H   UNL     1      91.804  -3.039  21.200  0.00  0.00    +0.000 HD
ENDBRANCH   8  20
BRANCH  10  22
ATOM     22  O   UNL     1      88.720   0.960  19.660  0.00  0.00    +0.000 OA
ATOM     23  H   UNL     1      89.297   0.946  18.877  0.00  0.00    +0.000 HD
ENDBRANCH  10  22
TORSDOF 4
