REMARK VINA RESULT:      -5.5      3.107      4.860
REMARK  Name = 5280443
REMARK  4 active torsions:
REMARK  status: ('A' for Active; 'I' for Inactive)
REMARK    1  A    between atoms: O_2  and  C_12
REMARK    2  A    between atoms: O_4  and  C_14
REMARK    3  A    between atoms: O_5  and  C_20
REMARK    4  A    between atoms: C_8  and  C_9
REMARK                            x       y       z     vdW  Elec       q    Type
REMARK                         _______ _______ _______ _____ _____    ______ ____
ROOT
ATOM      1  O   UNL     1      88.575  -1.569  24.965  0.00  0.00    +0.000 OA
ATOM      2  O   UNL     1      89.782   0.098  28.481  0.00  0.00    +0.000 OA
ATOM      3  C   UNL     1      87.987  -0.628  27.126  0.00  0.00    +0.000 A 
ATOM      4  C   UNL     1      87.644  -1.203  25.905  0.00  0.00    +0.000 A 
ATOM      5  C   UNL     1      89.915  -1.346  25.243  0.00  0.00    +0.000 A 
ATOM      6  C   UNL     1      89.409  -0.400  27.429  0.00  0.00    +0.000 A 
ATOM      7  C   UNL     1      90.371  -0.807  26.385  0.00  0.00    +0.000 A 
ATOM      8  C   UNL     1      86.996  -0.277  28.045  0.00  0.00    +0.000 A 
ATOM      9  C   UNL     1      86.304  -1.433  25.594  0.00  0.00    +0.000 A 
ATOM     10  C   UNL     1      85.310  -1.084  26.509  0.00  0.00    +0.000 A 
ATOM     11  C   UNL     1      85.656  -0.506  27.733  0.00  0.00    +0.000 A 
ENDROOT
BRANCH   5  12
ATOM     12  C   UNL     1      90.830  -1.780  24.169  0.00  0.00    +0.000 A 
ATOM     13  C   UNL     1      91.059  -0.953  23.065  0.00  0.00    +0.000 A 
ATOM     14  C   UNL     1      91.472  -3.018  24.250  0.00  0.00    +0.000 A 
ATOM     15  C   UNL     1      91.924  -1.363  22.051  0.00  0.00    +0.000 A 
ATOM     16  C   UNL     1      92.336  -3.427  23.235  0.00  0.00    +0.000 A 
ATOM     17  C   UNL     1      92.563  -2.600  22.135  0.00  0.00    +0.000 A 
BRANCH  17  18
ATOM     18  O   UNL     1      93.407  -2.999  21.146  0.00  0.00    +0.000 OA
ATOM     19  H   UNL     1      94.224  -3.341  21.549  0.00  0.00    +0.000 HD
ENDBRANCH  17  18
ENDBRANCH   5  12
BRANCH   8  20
ATOM     20  O   UNL     1      87.281   0.287  29.252  0.00  0.00    +0.000 OA
ATOM     21  H   UNL     1      86.721  -0.095  29.947  0.00  0.00    +0.000 HD
ENDBRANCH   8  20
BRANCH  10  22
ATOM     22  O   UNL     1      84.001  -1.306  26.209  0.00  0.00    +0.000 OA
ATOM     23  H   UNL     1      83.692  -2.087  26.700  0.00  0.00    +0.000 HD
ENDBRANCH  10  22
TORSDOF 4
