REMARK VINA RESULT:      -5.5      2.609      6.559
REMARK  Name = 5280443
REMARK  4 active torsions:
REMARK  status: ('A' for Active; 'I' for Inactive)
REMARK    1  A    between atoms: O_2  and  C_12
REMARK    2  A    between atoms: O_4  and  C_14
REMARK    3  A    between atoms: O_5  and  C_20
REMARK    4  A    between atoms: C_8  and  C_9
REMARK                            x       y       z     vdW  Elec       q    Type
REMARK                         _______ _______ _______ _____ _____    ______ ____
ROOT
ATOM      1  O   UNL     1      89.826  -0.692  24.873  0.00  0.00    +0.000 OA
ATOM      2  O   UNL     1      86.614  -0.810  22.371  0.00  0.00    +0.000 OA
ATOM      3  C   UNL     1      88.960  -0.945  22.619  0.00  0.00    +0.000 A 
ATOM      4  C   UNL     1      90.013  -0.895  23.529  0.00  0.00    +0.000 A 
ATOM      5  C   UNL     1      88.532  -0.522  25.342  0.00  0.00    +0.000 A 
ATOM      6  C   UNL     1      87.585  -0.775  23.113  0.00  0.00    +0.000 A 
ATOM      7  C   UNL     1      87.437  -0.557  24.566  0.00  0.00    +0.000 A 
ATOM      8  C   UNL     1      89.210  -1.156  21.261  0.00  0.00    +0.000 A 
ATOM      9  C   UNL     1      91.326  -1.056  23.087  0.00  0.00    +0.000 A 
ATOM     10  C   UNL     1      91.581  -1.266  21.731  0.00  0.00    +0.000 A 
ATOM     11  C   UNL     1      90.524  -1.315  20.819  0.00  0.00    +0.000 A 
ENDROOT
BRANCH   5  12
ATOM     12  C   UNL     1      88.445  -0.317  26.801  0.00  0.00    +0.000 A 
ATOM     13  C   UNL     1      87.211  -0.412  27.451  0.00  0.00    +0.000 A 
ATOM     14  C   UNL     1      89.595  -0.028  27.539  0.00  0.00    +0.000 A 
ATOM     15  C   UNL     1      87.129  -0.219  28.830  0.00  0.00    +0.000 A 
ATOM     16  C   UNL     1      89.512   0.165  28.918  0.00  0.00    +0.000 A 
ATOM     17  C   UNL     1      88.279   0.070  29.564  0.00  0.00    +0.000 A 
BRANCH  17  18
ATOM     18  O   UNL     1      88.200   0.257  30.909  0.00  0.00    +0.000 OA
ATOM     19  H   UNL     1      87.267   0.197  31.180  0.00  0.00    +0.000 HD
ENDBRANCH  17  18
ENDBRANCH   5  12
BRANCH   8  20
ATOM     20  O   UNL     1      88.215  -1.214  20.331  0.00  0.00    +0.000 OA
ATOM     21  H   UNL     1      87.403  -0.813  20.678  0.00  0.00    +0.000 HD
ENDBRANCH   8  20
BRANCH  10  22
ATOM     22  O   UNL     1      92.861  -1.423  21.296  0.00  0.00    +0.000 OA
ATOM     23  H   UNL     1      92.885  -1.291  20.332  0.00  0.00    +0.000 HD
ENDBRANCH  10  22
TORSDOF 4
