REMARK VINA RESULT:      -5.8      3.464      5.323
REMARK  Name = 5280443
REMARK  4 active torsions:
REMARK  status: ('A' for Active; 'I' for Inactive)
REMARK    1  A    between atoms: O_2  and  C_12
REMARK    2  A    between atoms: O_4  and  C_14
REMARK    3  A    between atoms: O_5  and  C_20
REMARK    4  A    between atoms: C_8  and  C_9
REMARK                            x       y       z     vdW  Elec       q    Type
REMARK                         _______ _______ _______ _____ _____    ______ ____
ROOT
ATOM      1  O   UNL     1      88.980  -0.132  27.321  0.00  0.00    +0.000 OA
ATOM      2  O   UNL     1      85.032  -1.126  27.180  0.00  0.00    +0.000 OA
ATOM      3  C   UNL     1      86.860  -0.385  28.481  0.00  0.00    +0.000 A 
ATOM      4  C   UNL     1      88.214  -0.059  28.458  0.00  0.00    +0.000 A 
ATOM      5  C   UNL     1      88.378  -0.557  26.147  0.00  0.00    +0.000 A 
ATOM      6  C   UNL     1      86.215  -0.827  27.234  0.00  0.00    +0.000 A 
ATOM      7  C   UNL     1      87.082  -0.891  26.039  0.00  0.00    +0.000 A 
ATOM      8  C   UNL     1      86.131  -0.291  29.668  0.00  0.00    +0.000 A 
ATOM      9  C   UNL     1      88.849   0.365  29.626  0.00  0.00    +0.000 A 
ATOM     10  C   UNL     1      88.124   0.460  30.814  0.00  0.00    +0.000 A 
ATOM     11  C   UNL     1      86.767   0.132  30.835  0.00  0.00    +0.000 A 
ENDROOT
BRANCH   5  12
ATOM     12  C   UNL     1      89.288  -0.593  24.985  0.00  0.00    +0.000 A 
ATOM     13  C   UNL     1      90.634  -0.929  25.159  0.00  0.00    +0.000 A 
ATOM     14  C   UNL     1      88.810  -0.293  23.708  0.00  0.00    +0.000 A 
ATOM     15  C   UNL     1      91.494  -0.964  24.062  0.00  0.00    +0.000 A 
ATOM     16  C   UNL     1      89.671  -0.328  22.611  0.00  0.00    +0.000 A 
ATOM     17  C   UNL     1      91.013  -0.663  22.788  0.00  0.00    +0.000 A 
BRANCH  17  18
ATOM     18  O   UNL     1      91.852  -0.698  21.718  0.00  0.00    +0.000 OA
ATOM     19  H   UNL     1      91.614   0.022  21.107  0.00  0.00    +0.000 HD
ENDBRANCH  17  18
ENDBRANCH   5  12
BRANCH   8  20
ATOM     20  O   UNL     1      84.805  -0.598  29.741  0.00  0.00    +0.000 OA
ATOM     21  H   UNL     1      84.452  -0.370  30.615  0.00  0.00    +0.000 HD
ENDBRANCH   8  20
BRANCH  10  22
ATOM     22  O   UNL     1      88.741   0.874  31.955  0.00  0.00    +0.000 OA
ATOM     23  H   UNL     1      88.227   1.601  32.346  0.00  0.00    +0.000 HD
ENDBRANCH  10  22
TORSDOF 4
