REMARK VINA RESULT:      -5.2      3.168      4.670
REMARK  Name = 118736856
REMARK  9 active torsions:
REMARK  status: ('A' for Active; 'I' for Inactive)
REMARK    1  A    between atoms: O_2  and  C_11
REMARK    2  A    between atoms: O_2  and  C_15
REMARK    3  A    between atoms: O_3  and  C_19
REMARK    4  A    between atoms: O_3  and  C_27
REMARK    5  A    between atoms: N_5  and  C_8
REMARK    6  A    between atoms: N_5  and  C_14
REMARK    7  A    between atoms: N_6  and  C_25
REMARK    8  A    between atoms: C_15  and  C_19
REMARK    9  A    between atoms: C_23  and  C_26
REMARK                            x       y       z     vdW  Elec       q    Type
REMARK                         _______ _______ _______ _____ _____    ______ ____
ROOT
ATOM      1  O   UNL     1      88.826   0.993  31.312  0.00  0.00    +0.000 OA
ATOM      2  N   UNL     1      86.650   1.018  30.476  0.00  0.00    +0.000 N 
ATOM      3  C   UNL     1      87.681  -0.463  28.267  0.00  0.00    +0.000 A 
ATOM      4  C   UNL     1      86.244  -0.103  28.324  0.00  0.00    +0.000 A 
ATOM      5  C   UNL     1      88.477  -0.078  29.274  0.00  0.00    +0.000 A 
ATOM      6  C   UNL     1      85.755   0.631  29.427  0.00  0.00    +0.000 A 
ATOM      7  C   UNL     1      85.340  -0.469  27.307  0.00  0.00    +0.000 A 
ATOM      8  C   UNL     1      88.003   0.692  30.447  0.00  0.00    +0.000 A 
ATOM      9  C   UNL     1      84.388   0.971  29.477  0.00  0.00    +0.000 A 
ATOM     10  C   UNL     1      83.990  -0.122  27.373  0.00  0.00    +0.000 A 
ATOM     11  C   UNL     1      83.514   0.596  28.458  0.00  0.00    +0.000 A 
ATOM     12  C   UNL     1      86.128   1.777  31.611  0.00  0.00    +0.000 C 
ENDROOT
BRANCH  10  15
ATOM     13  S   UNL     1      82.833   0.529  24.979  0.00  0.00    +0.000 S 
ATOM     14  N   UNL     1      81.565  -1.723  25.017  0.00  0.00    +0.000 NA
ATOM     15  C   UNL     1      83.090  -0.514  26.316  0.00  0.00    +0.000 A 
ATOM     16  C   UNL     1      82.336  -1.659  26.162  0.00  0.00    +0.000 A 
ATOM     17  C   UNL     1      81.748  -0.625  24.318  0.00  0.00    +0.000 A 
ENDBRANCH  10  15
BRANCH   3  18
ATOM     18  N   UNL     1      88.170  -1.175  27.204  0.00  0.00    +0.000 N 
ATOM     19  H   UNL     1      87.887  -2.140  27.090  0.00  0.00    +0.000 HD
BRANCH  18  20
ATOM     20  C   UNL     1      88.930  -0.574  26.131  0.00  0.00    +0.000 C 
ATOM     21  C   UNL     1      90.238  -1.346  25.937  0.00  0.00    +0.000 C 
ATOM     22  C   UNL     1      88.089  -0.567  24.852  0.00  0.00    +0.000 C 
ATOM     23  C   UNL     1      90.191  -0.804  23.470  0.00  0.00    +0.000 C 
ATOM     24  C   UNL     1      91.029  -0.811  24.746  0.00  0.00    +0.000 C 
ATOM     25  C   UNL     1      88.884  -0.035  23.663  0.00  0.00    +0.000 C 
BRANCH  23  26
ATOM     26  O   UNL     1      90.952  -0.200  22.430  0.00  0.00    +0.000 OA
BRANCH  26  27
ATOM     27  C   UNL     1      91.839  -1.131  21.827  0.00  0.00    +0.000 C 
BRANCH  27  28
ATOM     28  C   UNL     1      91.057  -2.363  21.415  0.00  0.00    +0.000 C 
BRANCH  28  29
ATOM     29  O   UNL     1      91.800  -3.524  21.764  0.00  0.00    +0.000 OA
ATOM     30  C   UNL     1      93.196  -3.261  21.792  0.00  0.00    +0.000 C 
ENDBRANCH  28  29
ENDBRANCH  27  28
ENDBRANCH  26  27
ENDBRANCH  23  26
ENDBRANCH  18  20
ENDBRANCH   3  18
TORSDOF 7
