REMARK VINA RESULT:      -5.4      0.000      0.000
REMARK  Name = 118736856
REMARK  9 active torsions:
REMARK  status: ('A' for Active; 'I' for Inactive)
REMARK    1  A    between atoms: O_2  and  C_11
REMARK    2  A    between atoms: O_2  and  C_15
REMARK    3  A    between atoms: O_3  and  C_19
REMARK    4  A    between atoms: O_3  and  C_27
REMARK    5  A    between atoms: N_5  and  C_8
REMARK    6  A    between atoms: N_5  and  C_14
REMARK    7  A    between atoms: N_6  and  C_25
REMARK    8  A    between atoms: C_15  and  C_19
REMARK    9  A    between atoms: C_23  and  C_26
REMARK                            x       y       z     vdW  Elec       q    Type
REMARK                         _______ _______ _______ _____ _____    ______ ____
ROOT
ATOM      1  O   UNL     1      85.990  -4.260  28.749  0.00  0.00    +0.000 OA
ATOM      2  N   UNL     1      85.607  -2.427  30.137  0.00  0.00    +0.000 N 
ATOM      3  C   UNL     1      86.969  -0.883  28.162  0.00  0.00    +0.000 A 
ATOM      4  C   UNL     1      86.440  -0.237  29.386  0.00  0.00    +0.000 A 
ATOM      5  C   UNL     1      86.791  -2.203  28.008  0.00  0.00    +0.000 A 
ATOM      6  C   UNL     1      85.769  -1.020  30.351  0.00  0.00    +0.000 A 
ATOM      7  C   UNL     1      86.585   1.144  29.624  0.00  0.00    +0.000 A 
ATOM      8  C   UNL     1      86.093  -3.058  28.996  0.00  0.00    +0.000 A 
ATOM      9  C   UNL     1      85.268  -0.399  31.514  0.00  0.00    +0.000 A 
ATOM     10  C   UNL     1      86.083   1.740  30.782  0.00  0.00    +0.000 A 
ATOM     11  C   UNL     1      85.423   0.969  31.726  0.00  0.00    +0.000 A 
ATOM     12  C   UNL     1      84.909  -3.223  31.145  0.00  0.00    +0.000 C 
ENDROOT
BRANCH  10  15
ATOM     13  S   UNL     1      85.533   4.276  29.908  0.00  0.00    +0.000 S 
ATOM     14  N   UNL     1      86.884   5.219  31.900  0.00  0.00    +0.000 NA
ATOM     15  C   UNL     1      86.246   3.157  30.995  0.00  0.00    +0.000 A 
ATOM     16  C   UNL     1      86.920   3.841  31.987  0.00  0.00    +0.000 A 
ATOM     17  C   UNL     1      86.181   5.561  30.844  0.00  0.00    +0.000 A 
ENDBRANCH  10  15
BRANCH   3  18
ATOM     18  N   UNL     1      87.621  -0.138  27.216  0.00  0.00    +0.000 N 
ATOM     19  H   UNL     1      87.672   0.865  27.334  0.00  0.00    +0.000 HD
BRANCH  18  20
ATOM     20  C   UNL     1      88.400  -0.722  26.146  0.00  0.00    +0.000 C 
ATOM     21  C   UNL     1      88.439   0.243  24.958  0.00  0.00    +0.000 C 
ATOM     22  C   UNL     1      89.807  -1.041  26.655  0.00  0.00    +0.000 C 
ATOM     23  C   UNL     1      90.740  -0.602  24.347  0.00  0.00    +0.000 C 
ATOM     24  C   UNL     1      89.334  -0.285  23.841  0.00  0.00    +0.000 C 
ATOM     25  C   UNL     1      90.701  -1.564  25.535  0.00  0.00    +0.000 C 
BRANCH  23  26
ATOM     26  O   UNL     1      91.485  -1.185  23.283  0.00  0.00    +0.000 OA
BRANCH  26  27
ATOM     27  C   UNL     1      90.748  -2.211  22.634  0.00  0.00    +0.000 C 
BRANCH  27  28
ATOM     28  C   UNL     1      90.864  -2.028  21.133  0.00  0.00    +0.000 C 
BRANCH  28  29
ATOM     29  O   UNL     1      91.256  -0.689  20.857  0.00  0.00    +0.000 OA
ATOM     30  C   UNL     1      90.254   0.008  20.132  0.00  0.00    +0.000 C 
ENDBRANCH  28  29
ENDBRANCH  27  28
ENDBRANCH  26  27
ENDBRANCH  23  26
ENDBRANCH  18  20
ENDBRANCH   3  18
TORSDOF 7
