REMARK VINA RESULT:      -5.3      3.019      4.151
REMARK  Name = 168679856
REMARK  8 active torsions:
REMARK  status: ('A' for Active; 'I' for Inactive)
REMARK    1  A    between atoms: O_4  and  C_23
REMARK    2  A    between atoms: O_4  and  C_28
REMARK    3  A    between atoms: O_5  and  C_24
REMARK    4  A    between atoms: O_5  and  C_29
REMARK    5  A    between atoms: N_10  and  C_19
REMARK    6  A    between atoms: C_14  and  C_18
REMARK    7  A    between atoms: C_16  and  C_20
REMARK    8  A    between atoms: C_23  and  C_24
REMARK                            x       y       z     vdW  Elec       q    Type
REMARK                         _______ _______ _______ _____ _____    ______ ____
ROOT
ATOM      1  N   UNL     1      91.512  -1.902  23.391  0.00  0.00    +0.000 N 
ATOM      2  N   UNL     1      90.172  -1.332  25.207  0.00  0.00    +0.000 NA
ATOM      3  N   UNL     1      91.656  -3.230  25.295  0.00  0.00    +0.000 NA
ATOM      4  N   UNL     1      92.614  -2.115  21.475  0.00  0.00    +0.000 NA
ATOM      5  C   UNL     1      89.789  -1.620  26.468  0.00  0.00    +0.000 A 
ATOM      6  C   UNL     1      91.095  -2.166  24.690  0.00  0.00    +0.000 A 
ATOM      7  C   UNL     1      91.227  -3.458  26.555  0.00  0.00    +0.000 A 
ATOM      8  C   UNL     1      90.287  -2.679  27.198  0.00  0.00    +0.000 A 
ATOM      9  C   UNL     1      91.077  -0.881  22.593  0.00  0.00    +0.000 A 
ATOM     10  C   UNL     1      92.434  -2.615  22.677  0.00  0.00    +0.000 A 
ATOM     11  C   UNL     1      91.771  -1.033  21.417  0.00  0.00    +0.000 A 
ENDROOT
BRANCH   7  15
ATOM     12  F   UNL     1      90.893  -5.501  27.752  0.00  0.00    +0.000 F 
ATOM     13  F   UNL     1      92.637  -5.371  26.459  0.00  0.00    +0.000 F 
ATOM     14  F   UNL     1      92.591  -4.284  28.340  0.00  0.00    +0.000 F 
ATOM     15  C   UNL     1      91.824  -4.628  27.264  0.00  0.00    +0.000 C 
ENDBRANCH   7  15
BRANCH   5  18
ATOM     16  O   UNL     1      88.093  -0.038  26.289  0.00  0.00    +0.000 OA
ATOM     17  N   UNL     1      88.674  -0.739  28.459  0.00  0.00    +0.000 N 
ATOM     18  C   UNL     1      88.771  -0.712  27.058  0.00  0.00    +0.000 C 
ATOM     19  H   UNL     1      89.314  -1.361  28.947  0.00  0.00    +0.000 HD
BRANCH  17  22
ATOM     20  N   UNL     1      87.400   1.255  31.272  0.00  0.00    +0.000 NA
ATOM     21  N   UNL     1      85.606   0.847  29.717  0.00  0.00    +0.000 NA
ATOM     22  C   UNL     1      87.805  -0.023  29.274  0.00  0.00    +0.000 A 
ATOM     23  C   UNL     1      88.216   0.553  30.458  0.00  0.00    +0.000 A 
ATOM     24  C   UNL     1      86.476   0.159  28.950  0.00  0.00    +0.000 A 
ATOM     25  C   UNL     1      86.126   1.362  30.847  0.00  0.00    +0.000 A 
BRANCH  25  26
ATOM     26  O   UNL     1      85.266   2.071  31.653  0.00  0.00    +0.000 OA
BRANCH  26  27
ATOM     27  C   UNL     1      85.787   3.249  32.253  0.00  0.00    +0.000 C 
BRANCH  27  28
ATOM     28  C   UNL     1      85.030   4.451  31.722  0.00  0.00    +0.000 C 
BRANCH  28  29
ATOM     29  O   UNL     1      85.460   4.721  30.394  0.00  0.00    +0.000 OA
ATOM     30  C   UNL     1      86.592   5.579  30.377  0.00  0.00    +0.000 C 
ENDBRANCH  28  29
ENDBRANCH  27  28
ENDBRANCH  26  27
ENDBRANCH  25  26
ENDBRANCH  17  22
ENDBRANCH   5  18
TORSDOF 7
