REMARK VINA RESULT:      -5.1      1.298      3.835
REMARK  Name = 155598690
REMARK  7 active torsions:
REMARK  status: ('A' for Active; 'I' for Inactive)
REMARK    1  A    between atoms: O_1  and  C_11
REMARK    2  A    between atoms: O_1  and  C_16
REMARK    3  A    between atoms: O_3  and  C_19
REMARK    4  A    between atoms: O_3  and  C_25
REMARK    5  A    between atoms: N_4  and  C_10
REMARK    6  A    between atoms: C_16  and  C_19
REMARK    7  A    between atoms: C_17  and  C_18
REMARK                            x       y       z     vdW  Elec       q    Type
REMARK                         _______ _______ _______ _____ _____    ______ ____
ROOT
ATOM      1  O   UNL     1      86.246  -0.377  27.509  0.00  0.00    +0.000 OA
ATOM      2  N   UNL     1      88.384  -0.989  28.168  0.00  0.00    +0.000 N 
ATOM      3  C   UNL     1      87.089  -0.542  28.386  0.00  0.00    +0.000 C 
ATOM      4  H   UNL     1      89.026  -1.042  28.954  0.00  0.00    +0.000 HD
ENDROOT
BRANCH   3  10
ATOM      5  N   UNL     1      86.870  -1.214  30.712  0.00  0.00    +0.000 NA
ATOM      6  N   UNL     1      86.056   2.185  29.560  0.00  0.00    +0.000 N 
ATOM      7  N   UNL     1      86.108   0.249  32.501  0.00  0.00    +0.000 NA
ATOM      8  N   UNL     1      86.698  -1.957  32.904  0.00  0.00    +0.000 N 
ATOM      9  N   UNL     1      86.674  -3.046  34.839  0.00  0.00    +0.000 NA
ATOM     10  C   UNL     1      86.740  -0.230  29.795  0.00  0.00    +0.000 A 
ATOM     11  C   UNL     1      86.291   1.007  30.221  0.00  0.00    +0.000 A 
ATOM     12  C   UNL     1      85.986   1.219  31.562  0.00  0.00    +0.000 A 
ATOM     13  C   UNL     1      86.551  -0.918  31.991  0.00  0.00    +0.000 A 
ATOM     14  C   UNL     1      85.557   2.562  31.697  0.00  0.00    +0.000 A 
ATOM     15  C   UNL     1      85.611   3.135  30.445  0.00  0.00    +0.000 A 
ATOM     16  C   UNL     1      87.129  -3.223  32.626  0.00  0.00    +0.000 A 
ATOM     17  C   UNL     1      86.437  -1.898  34.244  0.00  0.00    +0.000 A 
ATOM     18  C   UNL     1      87.106  -3.877  33.835  0.00  0.00    +0.000 A 
ATOM     19  H   UNL     1      86.189   2.335  28.568  0.00  0.00    +0.000 HD
ENDBRANCH   3  10
BRANCH   2  20
ATOM     20  C   UNL     1      88.881  -1.309  26.852  0.00  0.00    +0.000 C 
ATOM     21  C   UNL     1      90.913  -1.110  24.718  0.00  0.00    +0.000 C 
ATOM     22  C   UNL     1      89.022  -0.039  26.008  0.00  0.00    +0.000 C 
ATOM     23  C   UNL     1      90.207  -2.070  26.945  0.00  0.00    +0.000 C 
ATOM     24  C   UNL     1      89.591  -0.349  24.626  0.00  0.00    +0.000 C 
ATOM     25  C   UNL     1      90.772  -2.374  25.561  0.00  0.00    +0.000 C 
BRANCH  21  26
ATOM     26  O   UNL     1      91.345  -1.477  23.413  0.00  0.00    +0.000 OA
BRANCH  26  27
ATOM     27  C   UNL     1      90.353  -2.229  22.729  0.00  0.00    +0.000 C 
BRANCH  27  28
ATOM     28  C   UNL     1      90.563  -2.082  21.234  0.00  0.00    +0.000 C 
BRANCH  28  29
ATOM     29  O   UNL     1      89.698  -1.066  20.742  0.00  0.00    +0.000 OA
ATOM     30  C   UNL     1      90.428   0.070  20.299  0.00  0.00    +0.000 C 
ENDBRANCH  28  29
ENDBRANCH  27  28
ENDBRANCH  26  27
ENDBRANCH  21  26
ENDBRANCH   2  20
TORSDOF 6
