REMARK VINA RESULT:      -5.0      1.982      2.204
REMARK  Name = 155598690
REMARK  7 active torsions:
REMARK  status: ('A' for Active; 'I' for Inactive)
REMARK    1  A    between atoms: O_1  and  C_11
REMARK    2  A    between atoms: O_1  and  C_16
REMARK    3  A    between atoms: O_3  and  C_19
REMARK    4  A    between atoms: O_3  and  C_25
REMARK    5  A    between atoms: N_4  and  C_10
REMARK    6  A    between atoms: C_16  and  C_19
REMARK    7  A    between atoms: C_17  and  C_18
REMARK                            x       y       z     vdW  Elec       q    Type
REMARK                         _______ _______ _______ _____ _____    ______ ____
ROOT
ATOM      1  O   UNL     1      87.017  -2.195  27.891  0.00  0.00    +0.000 OA
ATOM      2  N   UNL     1      87.640  -0.193  26.901  0.00  0.00    +0.000 N 
ATOM      3  C   UNL     1      87.020  -0.968  27.870  0.00  0.00    +0.000 C 
ATOM      4  H   UNL     1      87.540   0.818  26.940  0.00  0.00    +0.000 HD
ENDROOT
BRANCH   3  10
ATOM      5  N   UNL     1      85.365   0.679  28.548  0.00  0.00    +0.000 NA
ATOM      6  N   UNL     1      87.377  -1.209  30.984  0.00  0.00    +0.000 N 
ATOM      7  N   UNL     1      84.861   1.252  30.859  0.00  0.00    +0.000 NA
ATOM      8  N   UNL     1      83.763   2.269  29.087  0.00  0.00    +0.000 N 
ATOM      9  N   UNL     1      82.181   3.825  29.172  0.00  0.00    +0.000 NA
ATOM     10  C   UNL     1      86.297  -0.221  28.931  0.00  0.00    +0.000 A 
ATOM     11  C   UNL     1      86.523  -0.395  30.285  0.00  0.00    +0.000 A 
ATOM     12  C   UNL     1      85.801   0.344  31.217  0.00  0.00    +0.000 A 
ATOM     13  C   UNL     1      84.713   1.351  29.522  0.00  0.00    +0.000 A 
ATOM     14  C   UNL     1      86.242  -0.045  32.506  0.00  0.00    +0.000 A 
ATOM     15  C   UNL     1      87.215  -1.004  32.331  0.00  0.00    +0.000 A 
ATOM     16  C   UNL     1      83.437   2.543  27.790  0.00  0.00    +0.000 A 
ATOM     17  C   UNL     1      82.983   3.062  29.881  0.00  0.00    +0.000 A 
ATOM     18  C   UNL     1      82.459   3.506  27.867  0.00  0.00    +0.000 A 
ATOM     19  H   UNL     1      88.030  -1.862  30.572  0.00  0.00    +0.000 HD
ENDBRANCH   3  10
BRANCH   2  20
ATOM     20  C   UNL     1      88.360  -0.770  25.792  0.00  0.00    +0.000 C 
ATOM     21  C   UNL     1      89.840  -0.539  23.247  0.00  0.00    +0.000 C 
ATOM     22  C   UNL     1      87.632  -0.487  24.475  0.00  0.00    +0.000 C 
ATOM     23  C   UNL     1      89.802  -0.257  25.757  0.00  0.00    +0.000 C 
ATOM     24  C   UNL     1      88.401  -1.049  23.282  0.00  0.00    +0.000 C 
ATOM     25  C   UNL     1      90.564  -0.820  24.561  0.00  0.00    +0.000 C 
BRANCH  21  26
ATOM     26  O   UNL     1      90.548  -1.177  22.190  0.00  0.00    +0.000 OA
BRANCH  26  27
ATOM     27  C   UNL     1      89.806  -1.157  20.980  0.00  0.00    +0.000 C 
BRANCH  27  28
ATOM     28  C   UNL     1      90.068   0.152  20.260  0.00  0.00    +0.000 C 
BRANCH  28  29
ATOM     29  O   UNL     1      88.832   0.826  20.059  0.00  0.00    +0.000 OA
ATOM     30  C   UNL     1      88.369   0.676  18.723  0.00  0.00    +0.000 C 
ENDBRANCH  28  29
ENDBRANCH  27  28
ENDBRANCH  26  27
ENDBRANCH  21  26
ENDBRANCH   2  20
TORSDOF 6
