REMARK VINA RESULT:      -5.1      4.936     10.227
REMARK  Name = 168679856
REMARK  8 active torsions:
REMARK  status: ('A' for Active; 'I' for Inactive)
REMARK    1  A    between atoms: O_4  and  C_23
REMARK    2  A    between atoms: O_4  and  C_28
REMARK    3  A    between atoms: O_5  and  C_24
REMARK    4  A    between atoms: O_5  and  C_29
REMARK    5  A    between atoms: N_10  and  C_19
REMARK    6  A    between atoms: C_14  and  C_18
REMARK    7  A    between atoms: C_16  and  C_20
REMARK    8  A    between atoms: C_23  and  C_24
REMARK                            x       y       z     vdW  Elec       q    Type
REMARK                         _______ _______ _______ _____ _____    ______ ____
ROOT
ATOM      1  N   UNL     1      85.870   2.944  31.017  0.00  0.00    +0.000 N 
ATOM      2  N   UNL     1      86.547   1.283  29.533  0.00  0.00    +0.000 NA
ATOM      3  N   UNL     1      86.449   0.874  31.907  0.00  0.00    +0.000 NA
ATOM      4  N   UNL     1      85.182   4.763  32.090  0.00  0.00    +0.000 NA
ATOM      5  C   UNL     1      86.972   0.014  29.370  0.00  0.00    +0.000 A 
ATOM      6  C   UNL     1      86.308   1.642  30.810  0.00  0.00    +0.000 A 
ATOM      7  C   UNL     1      86.877  -0.384  31.669  0.00  0.00    +0.000 A 
ATOM      8  C   UNL     1      87.156  -0.874  30.409  0.00  0.00    +0.000 A 
ATOM      9  C   UNL     1      85.660   3.890  30.053  0.00  0.00    +0.000 A 
ATOM     10  C   UNL     1      85.570   3.514  32.223  0.00  0.00    +0.000 A 
ATOM     11  C   UNL     1      85.236   5.003  30.739  0.00  0.00    +0.000 A 
ENDROOT
BRANCH   7  15
ATOM     12  F   UNL     1      86.141  -1.028  33.850  0.00  0.00    +0.000 F 
ATOM     13  F   UNL     1      86.910  -2.592  32.551  0.00  0.00    +0.000 F 
ATOM     14  F   UNL     1      88.270  -1.158  33.456  0.00  0.00    +0.000 F 
ATOM     15  C   UNL     1      87.047  -1.270  32.858  0.00  0.00    +0.000 C 
ENDBRANCH   7  15
BRANCH   5  18
ATOM     16  O   UNL     1      86.374  -1.046  27.386  0.00  0.00    +0.000 OA
ATOM     17  N   UNL     1      88.474   0.013  27.439  0.00  0.00    +0.000 N 
ATOM     18  C   UNL     1      87.241  -0.403  27.968  0.00  0.00    +0.000 C 
ATOM     19  H   UNL     1      89.079   0.546  28.061  0.00  0.00    +0.000 HD
BRANCH  17  22
ATOM     20  N   UNL     1      88.750  -0.036  23.774  0.00  0.00    +0.000 NA
ATOM     21  N   UNL     1      90.724  -1.035  24.727  0.00  0.00    +0.000 NA
ATOM     22  C   UNL     1      88.980  -0.207  26.163  0.00  0.00    +0.000 A 
ATOM     23  C   UNL     1      88.289   0.162  25.026  0.00  0.00    +0.000 A 
ATOM     24  C   UNL     1      90.204  -0.807  25.950  0.00  0.00    +0.000 A 
ATOM     25  C   UNL     1      89.956  -0.630  23.698  0.00  0.00    +0.000 A 
BRANCH  25  26
ATOM     26  O   UNL     1      90.457  -0.846  22.435  0.00  0.00    +0.000 OA
BRANCH  26  27
ATOM     27  C   UNL     1      91.826  -0.524  22.232  0.00  0.00    +0.000 C 
BRANCH  27  28
ATOM     28  C   UNL     1      92.507  -1.682  21.528  0.00  0.00    +0.000 C 
BRANCH  28  29
ATOM     29  O   UNL     1      92.375  -2.852  22.324  0.00  0.00    +0.000 OA
ATOM     30  C   UNL     1      92.040  -3.984  21.534  0.00  0.00    +0.000 C 
ENDBRANCH  28  29
ENDBRANCH  27  28
ENDBRANCH  26  27
ENDBRANCH  25  26
ENDBRANCH  17  22
ENDBRANCH   5  18
TORSDOF 7
