REMARK VINA RESULT:      -5.3      1.997      2.555
REMARK  Name = 155598690
REMARK  7 active torsions:
REMARK  status: ('A' for Active; 'I' for Inactive)
REMARK    1  A    between atoms: O_1  and  C_11
REMARK    2  A    between atoms: O_1  and  C_16
REMARK    3  A    between atoms: O_3  and  C_19
REMARK    4  A    between atoms: O_3  and  C_25
REMARK    5  A    between atoms: N_4  and  C_10
REMARK    6  A    between atoms: C_16  and  C_19
REMARK    7  A    between atoms: C_17  and  C_18
REMARK                            x       y       z     vdW  Elec       q    Type
REMARK                         _______ _______ _______ _____ _____    ______ ____
ROOT
ATOM      1  O   UNL     1      89.624   0.188  28.547  0.00  0.00    +0.000 OA
ATOM      2  N   UNL     1      88.021  -0.091  26.895  0.00  0.00    +0.000 N 
ATOM      3  C   UNL     1      88.456   0.021  28.206  0.00  0.00    +0.000 C 
ATOM      4  H   UNL     1      87.039  -0.283  26.715  0.00  0.00    +0.000 HD
ENDROOT
BRANCH   3  10
ATOM      5  N   UNL     1      87.137   0.990  30.003  0.00  0.00    +0.000 NA
ATOM      6  N   UNL     1      86.724  -2.503  28.921  0.00  0.00    +0.000 N 
ATOM      7  N   UNL     1      85.432  -0.209  31.260  0.00  0.00    +0.000 NA
ATOM      8  N   UNL     1      85.931   2.012  31.703  0.00  0.00    +0.000 N 
ATOM      9  N   UNL     1      85.018   3.338  33.232  0.00  0.00    +0.000 NA
ATOM     10  C   UNL     1      87.406  -0.099  29.250  0.00  0.00    +0.000 A 
ATOM     11  C   UNL     1      86.692  -1.258  29.494  0.00  0.00    +0.000 A 
ATOM     12  C   UNL     1      85.722  -1.287  30.491  0.00  0.00    +0.000 A 
ATOM     13  C   UNL     1      86.179   0.870  30.949  0.00  0.00    +0.000 A 
ATOM     14  C   UNL     1      85.165  -2.589  30.508  0.00  0.00    +0.000 A 
ATOM     15  C   UNL     1      85.802  -3.319  29.529  0.00  0.00    +0.000 A 
ATOM     16  C   UNL     1      86.557   3.219  31.572  0.00  0.00    +0.000 A 
ATOM     17  C   UNL     1      85.015   2.132  32.710  0.00  0.00    +0.000 A 
ATOM     18  C   UNL     1      85.977   4.021  32.527  0.00  0.00    +0.000 A 
ATOM     19  H   UNL     1      87.335  -2.783  28.164  0.00  0.00    +0.000 HD
ENDBRANCH   3  10
BRANCH   2  20
ATOM     20  C   UNL     1      88.923  -0.021  25.770  0.00  0.00    +0.000 C 
ATOM     21  C   UNL     1      90.157  -1.176  23.349  0.00  0.00    +0.000 C 
ATOM     22  C   UNL     1      89.989  -1.116  25.869  0.00  0.00    +0.000 C 
ATOM     23  C   UNL     1      88.150  -0.107  24.451  0.00  0.00    +0.000 C 
ATOM     24  C   UNL     1      90.926  -1.091  24.665  0.00  0.00    +0.000 C 
ATOM     25  C   UNL     1      89.094  -0.084  23.252  0.00  0.00    +0.000 C 
BRANCH  21  26
ATOM     26  O   UNL     1      91.059  -1.032  22.257  0.00  0.00    +0.000 OA
BRANCH  26  27
ATOM     27  C   UNL     1      90.869  -2.051  21.287  0.00  0.00    +0.000 C 
BRANCH  27  28
ATOM     28  C   UNL     1      91.779  -3.220  21.612  0.00  0.00    +0.000 C 
BRANCH  28  29
ATOM     29  O   UNL     1      91.632  -4.215  20.607  0.00  0.00    +0.000 OA
ATOM     30  C   UNL     1      91.315  -5.481  21.170  0.00  0.00    +0.000 C 
ENDBRANCH  28  29
ENDBRANCH  27  28
ENDBRANCH  26  27
ENDBRANCH  21  26
ENDBRANCH   2  20
TORSDOF 6
