REMARK VINA RESULT:      -4.8      3.944      9.022
REMARK  Name = 118736856
REMARK  9 active torsions:
REMARK  status: ('A' for Active; 'I' for Inactive)
REMARK    1  A    between atoms: O_2  and  C_11
REMARK    2  A    between atoms: O_2  and  C_15
REMARK    3  A    between atoms: O_3  and  C_19
REMARK    4  A    between atoms: O_3  and  C_27
REMARK    5  A    between atoms: N_5  and  C_8
REMARK    6  A    between atoms: N_5  and  C_14
REMARK    7  A    between atoms: N_6  and  C_25
REMARK    8  A    between atoms: C_15  and  C_19
REMARK    9  A    between atoms: C_23  and  C_26
REMARK                            x       y       z     vdW  Elec       q    Type
REMARK                         _______ _______ _______ _____ _____    ______ ____
ROOT
ATOM      1  O   UNL     1      92.343  -0.101  22.218  0.00  0.00    +0.000 OA
ATOM      2  N   UNL     1      90.196  -0.497  21.403  0.00  0.00    +0.000 N 
ATOM      3  C   UNL     1      89.535  -1.293  24.062  0.00  0.00    +0.000 A 
ATOM      4  C   UNL     1      88.510  -1.325  22.992  0.00  0.00    +0.000 A 
ATOM      5  C   UNL     1      90.773  -0.883  23.749  0.00  0.00    +0.000 A 
ATOM      6  C   UNL     1      88.858  -0.927  21.683  0.00  0.00    +0.000 A 
ATOM      7  C   UNL     1      87.187  -1.744  23.237  0.00  0.00    +0.000 A 
ATOM      8  C   UNL     1      91.177  -0.458  22.389  0.00  0.00    +0.000 A 
ATOM      9  C   UNL     1      87.878  -0.959  20.670  0.00  0.00    +0.000 A 
ATOM     10  C   UNL     1      86.231  -1.770  22.221  0.00  0.00    +0.000 A 
ATOM     11  C   UNL     1      86.576  -1.377  20.938  0.00  0.00    +0.000 A 
ATOM     12  C   UNL     1      90.540  -0.088  20.043  0.00  0.00    +0.000 C 
ENDROOT
BRANCH  10  15
ATOM     13  S   UNL     1      83.760  -2.403  21.225  0.00  0.00    +0.000 S 
ATOM     14  N   UNL     1      82.954  -2.898  23.631  0.00  0.00    +0.000 NA
ATOM     15  C   UNL     1      84.884  -2.202  22.505  0.00  0.00    +0.000 A 
ATOM     16  C   UNL     1      84.279  -2.512  23.705  0.00  0.00    +0.000 A 
ATOM     17  C   UNL     1      82.575  -2.877  22.373  0.00  0.00    +0.000 A 
ENDBRANCH  10  15
BRANCH   3  18
ATOM     18  N   UNL     1      89.213  -1.676  25.336  0.00  0.00    +0.000 N 
ATOM     19  H   UNL     1      89.382  -2.633  25.617  0.00  0.00    +0.000 HD
BRANCH  18  20
ATOM     20  C   UNL     1      88.810  -0.743  26.366  0.00  0.00    +0.000 C 
ATOM     21  C   UNL     1      87.450  -1.163  26.931  0.00  0.00    +0.000 C 
ATOM     22  C   UNL     1      89.881  -0.694  27.458  0.00  0.00    +0.000 C 
ATOM     23  C   UNL     1      88.096  -0.218  29.183  0.00  0.00    +0.000 C 
ATOM     24  C   UNL     1      87.029  -0.266  28.091  0.00  0.00    +0.000 C 
ATOM     25  C   UNL     1      89.454   0.200  28.619  0.00  0.00    +0.000 C 
BRANCH  23  26
ATOM     26  O   UNL     1      87.686   0.713  30.179  0.00  0.00    +0.000 OA
BRANCH  26  27
ATOM     27  C   UNL     1      87.974   0.236  31.485  0.00  0.00    +0.000 C 
BRANCH  27  28
ATOM     28  C   UNL     1      86.894  -0.744  31.902  0.00  0.00    +0.000 C 
BRANCH  28  29
ATOM     29  O   UNL     1      87.504  -1.875  32.512  0.00  0.00    +0.000 OA
ATOM     30  C   UNL     1      86.726  -3.049  32.329  0.00  0.00    +0.000 C 
ENDBRANCH  28  29
ENDBRANCH  27  28
ENDBRANCH  26  27
ENDBRANCH  23  26
ENDBRANCH  18  20
ENDBRANCH   3  18
TORSDOF 7
