REMARK VINA RESULT:      -5.5      3.258      8.850
REMARK  Name = 155598690
REMARK  7 active torsions:
REMARK  status: ('A' for Active; 'I' for Inactive)
REMARK    1  A    between atoms: O_1  and  C_11
REMARK    2  A    between atoms: O_1  and  C_16
REMARK    3  A    between atoms: O_3  and  C_19
REMARK    4  A    between atoms: O_3  and  C_25
REMARK    5  A    between atoms: N_4  and  C_10
REMARK    6  A    between atoms: C_16  and  C_19
REMARK    7  A    between atoms: C_17  and  C_18
REMARK                            x       y       z     vdW  Elec       q    Type
REMARK                         _______ _______ _______ _____ _____    ______ ____
ROOT
ATOM      1  O   UNL     1      87.200  -2.620  27.301  0.00  0.00    +0.000 OA
ATOM      2  N   UNL     1      88.463  -0.833  28.067  0.00  0.00    +0.000 N 
ATOM      3  C   UNL     1      88.201  -1.912  27.238  0.00  0.00    +0.000 C 
ATOM      4  H   UNL     1      89.347  -0.340  27.972  0.00  0.00    +0.000 HD
ENDROOT
BRANCH   3  10
ATOM      5  N   UNL     1      89.191  -1.556  25.046  0.00  0.00    +0.000 NA
ATOM      6  N   UNL     1      90.582  -3.952  27.468  0.00  0.00    +0.000 N 
ATOM      7  N   UNL     1      91.168  -2.713  24.224  0.00  0.00    +0.000 NA
ATOM      8  N   UNL     1      90.056  -1.140  22.933  0.00  0.00    +0.000 N 
ATOM      9  N   UNL     1      90.553  -0.461  20.878  0.00  0.00    +0.000 NA
ATOM     10  C   UNL     1      89.242  -2.217  26.223  0.00  0.00    +0.000 A 
ATOM     11  C   UNL     1      90.258  -3.136  26.415  0.00  0.00    +0.000 A 
ATOM     12  C   UNL     1      91.197  -3.364  25.413  0.00  0.00    +0.000 A 
ATOM     13  C   UNL     1      90.144  -1.840  24.131  0.00  0.00    +0.000 A 
ATOM     14  C   UNL     1      92.102  -4.343  25.889  0.00  0.00    +0.000 A 
ATOM     15  C   UNL     1      91.698  -4.688  27.160  0.00  0.00    +0.000 A 
ATOM     16  C   UNL     1      89.112  -0.208  22.608  0.00  0.00    +0.000 A 
ATOM     17  C   UNL     1      90.900  -1.258  21.865  0.00  0.00    +0.000 A 
ATOM     18  C   UNL     1      89.439   0.196  21.336  0.00  0.00    +0.000 A 
ATOM     19  H   UNL     1      90.076  -4.006  28.343  0.00  0.00    +0.000 HD
ENDBRANCH   3  10
BRANCH   2  20
ATOM     20  C   UNL     1      87.561  -0.427  29.118  0.00  0.00    +0.000 C 
ATOM     21  C   UNL     1      86.191   1.643  30.718  0.00  0.00    +0.000 C 
ATOM     22  C   UNL     1      88.309   0.370  30.190  0.00  0.00    +0.000 C 
ATOM     23  C   UNL     1      86.385   0.369  28.545  0.00  0.00    +0.000 C 
ATOM     24  C   UNL     1      87.365   0.849  31.289  0.00  0.00    +0.000 C 
ATOM     25  C   UNL     1      85.447   0.848  29.649  0.00  0.00    +0.000 C 
BRANCH  21  26
ATOM     26  O   UNL     1      85.280   1.968  31.762  0.00  0.00    +0.000 OA
BRANCH  26  27
ATOM     27  C   UNL     1      85.669   3.153  32.442  0.00  0.00    +0.000 C 
BRANCH  27  28
ATOM     28  C   UNL     1      85.924   4.248  31.423  0.00  0.00    +0.000 C 
BRANCH  28  29
ATOM     29  O   UNL     1      87.189   4.841  31.688  0.00  0.00    +0.000 OA
ATOM     30  C   UNL     1      87.414   4.986  33.083  0.00  0.00    +0.000 C 
ENDBRANCH  28  29
ENDBRANCH  27  28
ENDBRANCH  26  27
ENDBRANCH  21  26
ENDBRANCH   2  20
TORSDOF 6
