REMARK VINA RESULT:      -5.9      0.000      0.000
REMARK  Name = 168679856
REMARK  8 active torsions:
REMARK  status: ('A' for Active; 'I' for Inactive)
REMARK    1  A    between atoms: O_4  and  C_23
REMARK    2  A    between atoms: O_4  and  C_28
REMARK    3  A    between atoms: O_5  and  C_24
REMARK    4  A    between atoms: O_5  and  C_29
REMARK    5  A    between atoms: N_10  and  C_19
REMARK    6  A    between atoms: C_14  and  C_18
REMARK    7  A    between atoms: C_16  and  C_20
REMARK    8  A    between atoms: C_23  and  C_24
REMARK                            x       y       z     vdW  Elec       q    Type
REMARK                         _______ _______ _______ _____ _____    ______ ____
ROOT
ATOM      1  N   UNL     1      88.981  -0.804  19.517  0.00  0.00    +0.000 N 
ATOM      2  N   UNL     1      89.049  -0.504  21.824  0.00  0.00    +0.000 NA
ATOM      3  N   UNL     1      90.727  -1.804  20.683  0.00  0.00    +0.000 NA
ATOM      4  N   UNL     1      88.572  -0.856  17.335  0.00  0.00    +0.000 NA
ATOM      5  C   UNL     1      89.689  -0.762  22.983  0.00  0.00    +0.000 A 
ATOM      6  C   UNL     1      89.615  -1.048  20.729  0.00  0.00    +0.000 A 
ATOM      7  C   UNL     1      91.316  -2.022  21.879  0.00  0.00    +0.000 A 
ATOM      8  C   UNL     1      90.837  -1.521  23.072  0.00  0.00    +0.000 A 
ATOM      9  C   UNL     1      87.845  -0.067  19.332  0.00  0.00    +0.000 A 
ATOM     10  C   UNL     1      89.381  -1.256  18.291  0.00  0.00    +0.000 A 
ATOM     11  C   UNL     1      87.612  -0.114  17.978  0.00  0.00    +0.000 A 
ENDROOT
BRANCH   7  15
ATOM     12  F   UNL     1      92.443  -3.989  21.120  0.00  0.00    +0.000 F 
ATOM     13  F   UNL     1      93.634  -2.187  21.376  0.00  0.00    +0.000 F 
ATOM     14  F   UNL     1      92.930  -3.286  23.114  0.00  0.00    +0.000 F 
ATOM     15  C   UNL     1      92.554  -2.856  21.874  0.00  0.00    +0.000 C 
ENDBRANCH   7  15
BRANCH   5  18
ATOM     16  O   UNL     1      88.391   0.834  24.069  0.00  0.00    +0.000 OA
ATOM     17  N   UNL     1      89.345  -0.852  25.403  0.00  0.00    +0.000 N 
ATOM     18  C   UNL     1      89.081  -0.171  24.204  0.00  0.00    +0.000 C 
ATOM     19  H   UNL     1      89.939  -1.676  25.337  0.00  0.00    +0.000 HD
BRANCH  17  22
ATOM     20  N   UNL     1      89.349   0.139  28.943  0.00  0.00    +0.000 NA
ATOM     21  N   UNL     1      87.087  -0.317  28.254  0.00  0.00    +0.000 NA
ATOM     22  C   UNL     1      88.894  -0.547  26.682  0.00  0.00    +0.000 A 
ATOM     23  C   UNL     1      89.753  -0.164  27.692  0.00  0.00    +0.000 A 
ATOM     24  C   UNL     1      87.559  -0.606  27.024  0.00  0.00    +0.000 A 
ATOM     25  C   UNL     1      88.023   0.044  29.152  0.00  0.00    +0.000 A 
BRANCH  25  26
ATOM     26  O   UNL     1      87.575   0.347  30.417  0.00  0.00    +0.000 OA
BRANCH  26  27
ATOM     27  C   UNL     1      86.408   1.153  30.501  0.00  0.00    +0.000 C 
BRANCH  27  28
ATOM     28  C   UNL     1      86.725   2.400  31.305  0.00  0.00    +0.000 C 
BRANCH  28  29
ATOM     29  O   UNL     1      86.233   3.538  30.610  0.00  0.00    +0.000 OA
ATOM     30  C   UNL     1      86.685   4.746  31.204  0.00  0.00    +0.000 C 
ENDBRANCH  28  29
ENDBRANCH  27  28
ENDBRANCH  26  27
ENDBRANCH  25  26
ENDBRANCH  17  22
ENDBRANCH   5  18
TORSDOF 7
