REMARK VINA RESULT:      -4.9      2.387      3.290
REMARK  Name = 118736856
REMARK  9 active torsions:
REMARK  status: ('A' for Active; 'I' for Inactive)
REMARK    1  A    between atoms: O_2  and  C_11
REMARK    2  A    between atoms: O_2  and  C_15
REMARK    3  A    between atoms: O_3  and  C_19
REMARK    4  A    between atoms: O_3  and  C_27
REMARK    5  A    between atoms: N_5  and  C_8
REMARK    6  A    between atoms: N_5  and  C_14
REMARK    7  A    between atoms: N_6  and  C_25
REMARK    8  A    between atoms: C_15  and  C_19
REMARK    9  A    between atoms: C_23  and  C_26
REMARK                            x       y       z     vdW  Elec       q    Type
REMARK                         _______ _______ _______ _____ _____    ______ ____
ROOT
ATOM      1  O   UNL     1      86.792  -2.482  32.128  0.00  0.00    +0.000 OA
ATOM      2  N   UNL     1      85.938  -0.324  32.343  0.00  0.00    +0.000 N 
ATOM      3  C   UNL     1      86.644   0.028  29.602  0.00  0.00    +0.000 A 
ATOM      4  C   UNL     1      86.010   1.132  30.361  0.00  0.00    +0.000 A 
ATOM      5  C   UNL     1      86.875  -1.131  30.233  0.00  0.00    +0.000 A 
ATOM      6  C   UNL     1      85.668   0.936  31.718  0.00  0.00    +0.000 A 
ATOM      7  C   UNL     1      85.733   2.382  29.773  0.00  0.00    +0.000 A 
ATOM      8  C   UNL     1      86.532  -1.376  31.653  0.00  0.00    +0.000 A 
ATOM      9  C   UNL     1      85.065   1.989  32.435  0.00  0.00    +0.000 A 
ATOM     10  C   UNL     1      85.136   3.413  30.500  0.00  0.00    +0.000 A 
ATOM     11  C   UNL     1      84.801   3.216  31.830  0.00  0.00    +0.000 A 
ATOM     12  C   UNL     1      85.578  -0.511  33.748  0.00  0.00    +0.000 C 
ENDROOT
BRANCH  10  15
ATOM     13  S   UNL     1      85.758   6.073  30.320  0.00  0.00    +0.000 S 
ATOM     14  N   UNL     1      83.945   6.340  28.497  0.00  0.00    +0.000 NA
ATOM     15  C   UNL     1      84.864   4.681  29.868  0.00  0.00    +0.000 A 
ATOM     16  C   UNL     1      83.951   5.015  28.889  0.00  0.00    +0.000 A 
ATOM     17  C   UNL     1      84.856   6.992  29.185  0.00  0.00    +0.000 A 
ENDBRANCH  10  15
BRANCH   3  18
ATOM     18  N   UNL     1      86.980   0.202  28.286  0.00  0.00    +0.000 N 
ATOM     19  H   UNL     1      86.741   1.073  27.831  0.00  0.00    +0.000 HD
BRANCH  18  20
ATOM     20  C   UNL     1      87.820  -0.720  27.554  0.00  0.00    +0.000 C 
ATOM     21  C   UNL     1      87.071  -1.222  26.317  0.00  0.00    +0.000 C 
ATOM     22  C   UNL     1      89.129  -0.025  27.173  0.00  0.00    +0.000 C 
ATOM     23  C   UNL     1      89.261  -1.428  25.075  0.00  0.00    +0.000 C 
ATOM     24  C   UNL     1      87.955  -2.120  25.457  0.00  0.00    +0.000 C 
ATOM     25  C   UNL     1      90.009  -0.925  26.310  0.00  0.00    +0.000 C 
BRANCH  23  26
ATOM     26  O   UNL     1      90.077  -2.355  24.366  0.00  0.00    +0.000 OA
BRANCH  26  27
ATOM     27  C   UNL     1      91.375  -2.444  24.935  0.00  0.00    +0.000 C 
BRANCH  27  28
ATOM     28  C   UNL     1      91.785  -3.903  25.003  0.00  0.00    +0.000 C 
BRANCH  28  29
ATOM     29  O   UNL     1      91.113  -4.524  26.092  0.00  0.00    +0.000 OA
ATOM     30  C   UNL     1      92.010  -4.837  27.148  0.00  0.00    +0.000 C 
ENDBRANCH  28  29
ENDBRANCH  27  28
ENDBRANCH  26  27
ENDBRANCH  23  26
ENDBRANCH  18  20
ENDBRANCH   3  18
TORSDOF 7
