REMARK VINA RESULT:      -5.4      3.627      5.223
REMARK  Name = 168679856
REMARK  8 active torsions:
REMARK  status: ('A' for Active; 'I' for Inactive)
REMARK    1  A    between atoms: O_4  and  C_23
REMARK    2  A    between atoms: O_4  and  C_28
REMARK    3  A    between atoms: O_5  and  C_24
REMARK    4  A    between atoms: O_5  and  C_29
REMARK    5  A    between atoms: N_10  and  C_19
REMARK    6  A    between atoms: C_14  and  C_18
REMARK    7  A    between atoms: C_16  and  C_20
REMARK    8  A    between atoms: C_23  and  C_24
REMARK                            x       y       z     vdW  Elec       q    Type
REMARK                         _______ _______ _______ _____ _____    ______ ____
ROOT
ATOM      1  N   UNL     1      89.135  -2.995  16.943  0.00  0.00    +0.000 N 
ATOM      2  N   UNL     1      89.420  -1.580  18.769  0.00  0.00    +0.000 NA
ATOM      3  N   UNL     1      88.369  -0.807  16.742  0.00  0.00    +0.000 NA
ATOM      4  N   UNL     1      89.049  -4.629  15.442  0.00  0.00    +0.000 NA
ATOM      5  C   UNL     1      89.241  -0.348  19.287  0.00  0.00    +0.000 A 
ATOM      6  C   UNL     1      88.966  -1.738  17.511  0.00  0.00    +0.000 A 
ATOM      7  C   UNL     1      88.223   0.402  17.324  0.00  0.00    +0.000 A 
ATOM      8  C   UNL     1      88.643   0.692  18.606  0.00  0.00    +0.000 A 
ATOM      9  C   UNL     1      89.713  -4.080  17.539  0.00  0.00    +0.000 A 
ATOM     10  C   UNL     1      88.752  -3.372  15.687  0.00  0.00    +0.000 A 
ATOM     11  C   UNL     1      89.649  -5.076  16.594  0.00  0.00    +0.000 A 
ENDROOT
BRANCH   7  15
ATOM     12  F   UNL     1      86.734   0.970  15.542  0.00  0.00    +0.000 F 
ATOM     13  F   UNL     1      86.795   2.302  17.260  0.00  0.00    +0.000 F 
ATOM     14  F   UNL     1      88.444   2.270  15.844  0.00  0.00    +0.000 F 
ATOM     15  C   UNL     1      87.564   1.463  16.507  0.00  0.00    +0.000 C 
ENDBRANCH   7  15
BRANCH   5  18
ATOM     16  O   UNL     1      90.725   0.552  20.837  0.00  0.00    +0.000 OA
ATOM     17  N   UNL     1      88.985  -0.787  21.680  0.00  0.00    +0.000 N 
ATOM     18  C   UNL     1      89.734  -0.152  20.676  0.00  0.00    +0.000 C 
ATOM     19  H   UNL     1      88.185  -1.335  21.373  0.00  0.00    +0.000 HD
BRANCH  17  22
ATOM     20  N   UNL     1      88.667   0.135  25.225  0.00  0.00    +0.000 NA
ATOM     21  N   UNL     1      90.345  -1.580  25.002  0.00  0.00    +0.000 NA
ATOM     22  C   UNL     1      89.194  -0.761  23.055  0.00  0.00    +0.000 A 
ATOM     23  C   UNL     1      88.490   0.084  23.888  0.00  0.00    +0.000 A 
ATOM     24  C   UNL     1      90.117  -1.579  23.673  0.00  0.00    +0.000 A 
ATOM     25  C   UNL     1      89.596  -0.711  25.709  0.00  0.00    +0.000 A 
BRANCH  25  26
ATOM     26  O   UNL     1      89.802  -0.687  27.069  0.00  0.00    +0.000 OA
BRANCH  26  27
ATOM     27  C   UNL     1      88.678  -0.363  27.874  0.00  0.00    +0.000 C 
BRANCH  27  28
ATOM     28  C   UNL     1      89.158   0.318  29.142  0.00  0.00    +0.000 C 
BRANCH  28  29
ATOM     29  O   UNL     1      88.177   0.151  30.159  0.00  0.00    +0.000 OA
ATOM     30  C   UNL     1      86.905   0.619  29.736  0.00  0.00    +0.000 C 
ENDBRANCH  28  29
ENDBRANCH  27  28
ENDBRANCH  26  27
ENDBRANCH  25  26
ENDBRANCH  17  22
ENDBRANCH   5  18
TORSDOF 7
