REMARK VINA RESULT:      -5.9      0.000      0.000
REMARK  Name = 441667
REMARK  12 active torsions:
REMARK  status: ('A' for Active; 'I' for Inactive)
REMARK    1  A    between atoms: O_2  and  C_16
REMARK    2  A    between atoms: O_2  and  C_18
REMARK    3  A    between atoms: O_3  and  C_12
REMARK    4  A    between atoms: O_4  and  C_13
REMARK    5  A    between atoms: O_5  and  C_14
REMARK    6  A    between atoms: O_6  and  C_17
REMARK    7  A    between atoms: O_8  and  C_24
REMARK    8  A    between atoms: O_9  and  C_29
REMARK    9  A    between atoms: O_10  and  C_30
REMARK   10  A    between atoms: O_11  and  C_32
REMARK   11  A    between atoms: C_15  and  C_17
REMARK   12  A    between atoms: C_19  and  C_23
REMARK                            x       y       z     vdW  Elec       q    Type
REMARK                         _______ _______ _______ _____ _____    ______ ____
ROOT
ATOM      1  O   UNL     1      88.510  -2.175  23.763  0.00  0.00    +0.000 OA
ATOM      2  C   UNL     1      88.044  -1.575  21.406  0.00  0.00    +0.000 A 
ATOM      3  C   UNL     1      88.904  -2.074  22.524  0.00  0.00    +0.000 A 
ATOM      4  C   UNL     1      86.810  -1.169  21.732  0.00  0.00    +0.000 A 
ATOM      5  C   UNL     1      86.348  -1.231  23.114  0.00  0.00    +0.000 A 
ATOM      6  C   UNL     1      87.210  -1.745  24.087  0.00  0.00    +0.000 A 
ATOM      7  C   UNL     1      85.067  -0.806  23.480  0.00  0.00    +0.000 A 
ATOM      8  C   UNL     1      86.797  -1.834  25.417  0.00  0.00    +0.000 A 
ATOM      9  C   UNL     1      84.655  -0.895  24.811  0.00  0.00    +0.000 A 
ATOM     10  C   UNL     1      85.518  -1.409  25.778  0.00  0.00    +0.000 A 
ENDROOT
BRANCH   3  11
ATOM     11  C   UNL     1      90.282  -2.505  22.188  0.00  0.00    +0.000 A 
ATOM     12  C   UNL     1      90.504  -3.794  21.716  0.00  0.00    +0.000 A 
ATOM     13  C   UNL     1      91.338  -1.615  22.347  0.00  0.00    +0.000 A 
ATOM     14  C   UNL     1      91.801  -4.198  21.399  0.00  0.00    +0.000 A 
ATOM     15  C   UNL     1      92.635  -2.020  22.029  0.00  0.00    +0.000 A 
ATOM     16  C   UNL     1      92.866  -3.311  21.556  0.00  0.00    +0.000 A 
BRANCH  14  17
ATOM     17  O   UNL     1      92.014  -5.462  20.937  0.00  0.00    +0.000 OA
ATOM     18  H   UNL     1      91.154  -5.845  20.689  0.00  0.00    +0.000 HD
ENDBRANCH  14  17
BRANCH  16  19
ATOM     19  O   UNL     1      94.137  -3.695  21.251  0.00  0.00    +0.000 OA
ATOM     20  H   UNL     1      94.571  -4.025  22.056  0.00  0.00    +0.000 HD
ENDBRANCH  16  19
ENDBRANCH   3  11
BRANCH   7  21
ATOM     21  O   UNL     1      84.192  -0.302  22.563  0.00  0.00    +0.000 OA
ATOM     22  H   UNL     1      83.337  -0.756  22.625  0.00  0.00    +0.000 HD
ENDBRANCH   7  21
BRANCH  10  23
ATOM     23  O   UNL     1      85.114  -1.495  27.074  0.00  0.00    +0.000 OA
ATOM     24  H   UNL     1      84.467  -0.790  27.251  0.00  0.00    +0.000 HD
ENDBRANCH  10  23
BRANCH   2  25
ATOM     25  O   UNL     1      88.506  -1.596  20.110  0.00  0.00    +0.000 OA
BRANCH  25  31
ATOM     26  O   UNL     1      87.130  -1.768  18.234  0.00  0.00    +0.000 OA
ATOM     27  C   UNL     1      87.624   0.969  17.515  0.00  0.00    +0.000 C 
ATOM     28  C   UNL     1      86.965  -0.024  16.557  0.00  0.00    +0.000 C 
ATOM     29  C   UNL     1      88.440   0.246  18.586  0.00  0.00    +0.000 C 
ATOM     30  C   UNL     1      86.230  -1.119  17.333  0.00  0.00    +0.000 C 
ATOM     31  C   UNL     1      87.637  -0.883  19.230  0.00  0.00    +0.000 C 
BRANCH  27  32
ATOM     32  O   UNL     1      88.485   1.815  16.750  0.00  0.00    +0.000 OA
ATOM     33  H   UNL     1      89.243   1.283  16.450  0.00  0.00    +0.000 HD
ENDBRANCH  27  32
BRANCH  28  34
ATOM     34  O   UNL     1      86.038   0.668  15.725  0.00  0.00    +0.000 OA
ATOM     35  H   UNL     1      85.389   1.105  16.301  0.00  0.00    +0.000 HD
ENDBRANCH  28  34
BRANCH  29  36
ATOM     36  O   UNL     1      88.807   1.173  19.609  0.00  0.00    +0.000 OA
ATOM     37  H   UNL     1      88.564   0.776  20.462  0.00  0.00    +0.000 HD
ENDBRANCH  29  36
BRANCH  30  38
ATOM     38  C   UNL     1      85.663  -2.187  16.401  0.00  0.00    +0.000 C 
BRANCH  38  39
ATOM     39  O   UNL     1      84.433  -1.720  15.878  0.00  0.00    +0.000 OA
ATOM     40  H   UNL     1      84.226  -0.876  16.316  0.00  0.00    +0.000 HD
ENDBRANCH  38  39
ENDBRANCH  30  38
ENDBRANCH  25  31
ENDBRANCH   2  25
TORSDOF 12
