REMARK VINA RESULT:      -5.4      2.666      5.971
REMARK  Name = 441667
REMARK  12 active torsions:
REMARK  status: ('A' for Active; 'I' for Inactive)
REMARK    1  A    between atoms: O_2  and  C_16
REMARK    2  A    between atoms: O_2  and  C_18
REMARK    3  A    between atoms: O_3  and  C_12
REMARK    4  A    between atoms: O_4  and  C_13
REMARK    5  A    between atoms: O_5  and  C_14
REMARK    6  A    between atoms: O_6  and  C_17
REMARK    7  A    between atoms: O_8  and  C_24
REMARK    8  A    between atoms: O_9  and  C_29
REMARK    9  A    between atoms: O_10  and  C_30
REMARK   10  A    between atoms: O_11  and  C_32
REMARK   11  A    between atoms: C_15  and  C_17
REMARK   12  A    between atoms: C_19  and  C_23
REMARK                            x       y       z     vdW  Elec       q    Type
REMARK                         _______ _______ _______ _____ _____    ______ ____
ROOT
ATOM      1  O   UNL     1      86.040  -1.286  26.231  0.00  0.00    +0.000 OA
ATOM      2  C   UNL     1      88.182  -2.021  25.230  0.00  0.00    +0.000 A 
ATOM      3  C   UNL     1      86.691  -1.908  25.289  0.00  0.00    +0.000 A 
ATOM      4  C   UNL     1      88.866  -1.482  26.248  0.00  0.00    +0.000 A 
ATOM      5  C   UNL     1      88.169  -0.811  27.340  0.00  0.00    +0.000 A 
ATOM      6  C   UNL     1      86.775  -0.724  27.291  0.00  0.00    +0.000 A 
ATOM      7  C   UNL     1      88.861  -0.246  28.416  0.00  0.00    +0.000 A 
ATOM      8  C   UNL     1      86.075  -0.076  28.310  0.00  0.00    +0.000 A 
ATOM      9  C   UNL     1      88.159   0.401  29.435  0.00  0.00    +0.000 A 
ATOM     10  C   UNL     1      86.768   0.486  29.382  0.00  0.00    +0.000 A 
ENDROOT
BRANCH   3  11
ATOM     11  C   UNL     1      85.915  -2.521  24.185  0.00  0.00    +0.000 A 
ATOM     12  C   UNL     1      85.466  -1.727  23.136  0.00  0.00    +0.000 A 
ATOM     13  C   UNL     1      85.645  -3.885  24.210  0.00  0.00    +0.000 A 
ATOM     14  C   UNL     1      84.736  -2.306  22.097  0.00  0.00    +0.000 A 
ATOM     15  C   UNL     1      84.915  -4.462  23.170  0.00  0.00    +0.000 A 
ATOM     16  C   UNL     1      84.461  -3.673  22.114  0.00  0.00    +0.000 A 
BRANCH  14  17
ATOM     17  O   UNL     1      84.297  -1.524  21.071  0.00  0.00    +0.000 OA
ATOM     18  H   UNL     1      83.558  -1.982  20.633  0.00  0.00    +0.000 HD
ENDBRANCH  14  17
BRANCH  16  19
ATOM     19  O   UNL     1      83.748  -4.249  21.106  0.00  0.00    +0.000 OA
ATOM     20  H   UNL     1      83.192  -4.957  21.475  0.00  0.00    +0.000 HD
ENDBRANCH  16  19
ENDBRANCH   3  11
BRANCH   7  21
ATOM     21  O   UNL     1      90.220  -0.305  28.502  0.00  0.00    +0.000 OA
ATOM     22  H   UNL     1      90.563  -1.038  27.966  0.00  0.00    +0.000 HD
ENDBRANCH   7  21
BRANCH  10  23
ATOM     23  O   UNL     1      86.087   1.118  30.376  0.00  0.00    +0.000 OA
ATOM     24  H   UNL     1      86.238   0.644  31.212  0.00  0.00    +0.000 HD
ENDBRANCH  10  23
BRANCH   2  25
ATOM     25  O   UNL     1      88.794  -2.609  24.146  0.00  0.00    +0.000 OA
BRANCH  25  31
ATOM     26  O   UNL     1      88.614  -1.408  22.154  0.00  0.00    +0.000 OA
ATOM     27  C   UNL     1      91.470  -1.271  21.879  0.00  0.00    +0.000 C 
ATOM     28  C   UNL     1      90.518  -0.915  20.737  0.00  0.00    +0.000 C 
ATOM     29  C   UNL     1      90.790  -2.181  22.902  0.00  0.00    +0.000 C 
ATOM     30  C   UNL     1      89.174  -0.425  21.282  0.00  0.00    +0.000 C 
ATOM     31  C   UNL     1      89.420  -1.639  23.307  0.00  0.00    +0.000 C 
BRANCH  27  32
ATOM     32  O   UNL     1      92.600  -1.942  21.320  0.00  0.00    +0.000 OA
ATOM     33  H   UNL     1      92.476  -2.899  21.445  0.00  0.00    +0.000 HD
ENDBRANCH  27  32
BRANCH  28  34
ATOM     34  O   UNL     1      91.103   0.108  19.935  0.00  0.00    +0.000 OA
ATOM     35  H   UNL     1      91.908  -0.255  19.531  0.00  0.00    +0.000 HD
ENDBRANCH  28  34
BRANCH  29  36
ATOM     36  O   UNL     1      91.602  -2.265  24.074  0.00  0.00    +0.000 OA
ATOM     37  H   UNL     1      92.133  -1.452  24.119  0.00  0.00    +0.000 HD
ENDBRANCH  29  36
BRANCH  30  38
ATOM     38  C   UNL     1      88.168  -0.176  20.162  0.00  0.00    +0.000 C 
BRANCH  38  39
ATOM     39  O   UNL     1      88.500   1.043  19.521  0.00  0.00    +0.000 OA
ATOM     40  H   UNL     1      89.379   0.933  19.117  0.00  0.00    +0.000 HD
ENDBRANCH  38  39
ENDBRANCH  30  38
ENDBRANCH  25  31
ENDBRANCH   2  25
TORSDOF 12
