REMARK VINA RESULT:      -5.6     12.409     14.451
REMARK  Name = 5280443
REMARK  4 active torsions:
REMARK  status: ('A' for Active; 'I' for Inactive)
REMARK    1  A    between atoms: O_2  and  C_12
REMARK    2  A    between atoms: O_4  and  C_14
REMARK    3  A    between atoms: O_5  and  C_20
REMARK    4  A    between atoms: C_8  and  C_9
REMARK                            x       y       z     vdW  Elec       q    Type
REMARK                         _______ _______ _______ _____ _____    ______ ____
ROOT
ATOM      1  O   UNL     1      88.968  -1.823  22.454  0.00  0.00    +0.000 OA
ATOM      2  O   UNL     1      90.415  -3.800  25.709  0.00  0.00    +0.000 OA
ATOM      3  C   UNL     1      90.146  -3.744  23.361  0.00  0.00    +0.000 A 
ATOM      4  C   UNL     1      89.628  -3.016  22.293  0.00  0.00    +0.000 A 
ATOM      5  C   UNL     1      88.804  -1.328  23.739  0.00  0.00    +0.000 A 
ATOM      6  C   UNL     1      89.984  -3.216  24.725  0.00  0.00    +0.000 A 
ATOM      7  C   UNL     1      89.264  -1.932  24.846  0.00  0.00    +0.000 A 
ATOM      8  C   UNL     1      90.810  -4.952  23.137  0.00  0.00    +0.000 A 
ATOM      9  C   UNL     1      89.770  -3.492  20.990  0.00  0.00    +0.000 A 
ATOM     10  C   UNL     1      90.432  -4.699  20.761  0.00  0.00    +0.000 A 
ATOM     11  C   UNL     1      90.951  -5.428  21.834  0.00  0.00    +0.000 A 
ENDROOT
BRANCH   5  12
ATOM     12  C   UNL     1      88.087  -0.039  23.797  0.00  0.00    +0.000 A 
ATOM     13  C   UNL     1      87.494   0.487  22.646  0.00  0.00    +0.000 A 
ATOM     14  C   UNL     1      87.996   0.660  25.003  0.00  0.00    +0.000 A 
ATOM     15  C   UNL     1      86.815   1.704  22.701  0.00  0.00    +0.000 A 
ATOM     16  C   UNL     1      87.317   1.877  25.057  0.00  0.00    +0.000 A 
ATOM     17  C   UNL     1      86.727   2.400  23.907  0.00  0.00    +0.000 A 
BRANCH  17  18
ATOM     18  O   UNL     1      86.065   3.587  23.961  0.00  0.00    +0.000 OA
ATOM     19  H   UNL     1      85.530   3.612  24.774  0.00  0.00    +0.000 HD
ENDBRANCH  17  18
ENDBRANCH   5  12
BRANCH   8  20
ATOM     20  O   UNL     1      91.335  -5.700  24.148  0.00  0.00    +0.000 OA
ATOM     21  H   UNL     1      91.895  -6.406  23.792  0.00  0.00    +0.000 HD
ENDBRANCH   8  20
BRANCH  10  22
ATOM     22  O   UNL     1      90.573  -5.167  19.490  0.00  0.00    +0.000 OA
ATOM     23  H   UNL     1      91.305  -4.693  19.058  0.00  0.00    +0.000 HD
ENDBRANCH  10  22
TORSDOF 4
