REMARK VINA RESULT:      -5.4     12.564     14.357
REMARK  Name = 5280443
REMARK  4 active torsions:
REMARK  status: ('A' for Active; 'I' for Inactive)
REMARK    1  A    between atoms: O_2  and  C_12
REMARK    2  A    between atoms: O_4  and  C_14
REMARK    3  A    between atoms: O_5  and  C_20
REMARK    4  A    between atoms: C_8  and  C_9
REMARK                            x       y       z     vdW  Elec       q    Type
REMARK                         _______ _______ _______ _____ _____    ______ ____
ROOT
ATOM      1  O   UNL     1      87.248   0.407  24.535  0.00  0.00    +0.000 OA
ATOM      2  O   UNL     1      85.352   0.745  20.945  0.00  0.00    +0.000 OA
ATOM      3  C   UNL     1      85.666   1.596  23.127  0.00  0.00    +0.000 A 
ATOM      4  C   UNL     1      86.349   1.423  24.329  0.00  0.00    +0.000 A 
ATOM      5  C   UNL     1      87.478  -0.491  23.504  0.00  0.00    +0.000 A 
ATOM      6  C   UNL     1      85.914   0.651  22.027  0.00  0.00    +0.000 A 
ATOM      7  C   UNL     1      86.888  -0.426  22.300  0.00  0.00    +0.000 A 
ATOM      8  C   UNL     1      84.763   2.650  22.974  0.00  0.00    +0.000 A 
ATOM      9  C   UNL     1      86.134   2.306  25.387  0.00  0.00    +0.000 A 
ATOM     10  C   UNL     1      85.232   3.360  25.239  0.00  0.00    +0.000 A 
ATOM     11  C   UNL     1      84.547   3.531  24.033  0.00  0.00    +0.000 A 
ENDROOT
BRANCH   5  12
ATOM     12  C   UNL     1      88.464  -1.539  23.830  0.00  0.00    +0.000 A 
ATOM     13  C   UNL     1      89.079  -2.267  22.807  0.00  0.00    +0.000 A 
ATOM     14  C   UNL     1      88.789  -1.808  25.162  0.00  0.00    +0.000 A 
ATOM     15  C   UNL     1      90.013  -3.257  23.115  0.00  0.00    +0.000 A 
ATOM     16  C   UNL     1      89.722  -2.798  25.469  0.00  0.00    +0.000 A 
ATOM     17  C   UNL     1      90.334  -3.523  24.446  0.00  0.00    +0.000 A 
BRANCH  17  18
ATOM     18  O   UNL     1      91.245  -4.488  24.747  0.00  0.00    +0.000 OA
ATOM     19  H   UNL     1      92.040  -4.350  24.204  0.00  0.00    +0.000 HD
ENDBRANCH  17  18
ENDBRANCH   5  12
BRANCH   8  20
ATOM     20  O   UNL     1      84.071   2.862  21.819  0.00  0.00    +0.000 OA
ATOM     21  H   UNL     1      84.196   2.120  21.207  0.00  0.00    +0.000 HD
ENDBRANCH   8  20
BRANCH  10  22
ATOM     22  O   UNL     1      85.019   4.224  26.269  0.00  0.00    +0.000 OA
ATOM     23  H   UNL     1      85.791   4.809  26.355  0.00  0.00    +0.000 HD
ENDBRANCH  10  22
TORSDOF 4
