REMARK VINA RESULT:      -7.2      0.053      1.082
REMARK  Name = 5280443
REMARK  4 active torsions:
REMARK  status: ('A' for Active; 'I' for Inactive)
REMARK    1  A    between atoms: O_2  and  C_12
REMARK    2  A    between atoms: O_4  and  C_14
REMARK    3  A    between atoms: O_5  and  C_20
REMARK    4  A    between atoms: C_8  and  C_9
REMARK                            x       y       z     vdW  Elec       q    Type
REMARK                         _______ _______ _______ _____ _____    ______ ____
ROOT
ATOM      1  O   UNL     1      99.262   2.422  28.276  0.00  0.00    +0.000 OA
ATOM      2  O   UNL     1     102.204   4.057  30.571  0.00  0.00    +0.000 OA
ATOM      3  C   UNL     1      99.907   3.984  30.021  0.00  0.00    +0.000 A 
ATOM      4  C   UNL     1      98.951   3.384  29.205  0.00  0.00    +0.000 A 
ATOM      5  C   UNL     1     100.588   2.040  28.140  0.00  0.00    +0.000 A 
ATOM      6  C   UNL     1     101.314   3.574  29.887  0.00  0.00    +0.000 A 
ATOM      7  C   UNL     1     101.597   2.539  28.872  0.00  0.00    +0.000 A 
ATOM      8  C   UNL     1      99.532   4.957  30.950  0.00  0.00    +0.000 A 
ATOM      9  C   UNL     1      97.610   3.753  29.313  0.00  0.00    +0.000 A 
ATOM     10  C   UNL     1      97.231   4.724  30.240  0.00  0.00    +0.000 A 
ATOM     11  C   UNL     1      98.191   5.326  31.057  0.00  0.00    +0.000 A 
ENDROOT
BRANCH   5  12
ATOM     12  C   UNL     1     100.809   0.998  27.119  0.00  0.00    +0.000 A 
ATOM     13  C   UNL     1     101.728   1.211  26.087  0.00  0.00    +0.000 A 
ATOM     14  C   UNL     1     100.104  -0.206  27.179  0.00  0.00    +0.000 A 
ATOM     15  C   UNL     1     101.938   0.226  25.122  0.00  0.00    +0.000 A 
ATOM     16  C   UNL     1     100.314  -1.190  26.214  0.00  0.00    +0.000 A 
ATOM     17  C   UNL     1     101.231  -0.975  25.185  0.00  0.00    +0.000 A 
BRANCH  17  18
ATOM     18  O   UNL     1     101.437  -1.936  24.244  0.00  0.00    +0.000 OA
ATOM     19  H   UNL     1     101.816  -2.722  24.675  0.00  0.00    +0.000 HD
ENDBRANCH  17  18
ENDBRANCH   5  12
BRANCH   8  20
ATOM     20  O   UNL     1     100.429   5.573  31.770  0.00  0.00    +0.000 OA
ATOM     21  H   UNL     1     101.176   5.920  31.258  0.00  0.00    +0.000 HD
ENDBRANCH   8  20
BRANCH  10  22
ATOM     22  O   UNL     1      95.923   5.087  30.349  0.00  0.00    +0.000 OA
ATOM     23  H   UNL     1      95.473   4.904  29.506  0.00  0.00    +0.000 HD
ENDBRANCH  10  22
TORSDOF 4
