REMARK VINA RESULT:      -6.5      0.000      0.000
REMARK  Name = 118736856
REMARK  9 active torsions:
REMARK  status: ('A' for Active; 'I' for Inactive)
REMARK    1  A    between atoms: O_2  and  C_11
REMARK    2  A    between atoms: O_2  and  C_15
REMARK    3  A    between atoms: O_3  and  C_19
REMARK    4  A    between atoms: O_3  and  C_27
REMARK    5  A    between atoms: N_5  and  C_8
REMARK    6  A    between atoms: N_5  and  C_14
REMARK    7  A    between atoms: N_6  and  C_25
REMARK    8  A    between atoms: C_15  and  C_19
REMARK    9  A    between atoms: C_23  and  C_26
REMARK                            x       y       z     vdW  Elec       q    Type
REMARK                         _______ _______ _______ _____ _____    ______ ____
ROOT
ATOM      1  O   UNL     1      84.524   3.300  26.711  0.00  0.00    +0.000 OA
ATOM      2  N   UNL     1      83.671   3.168  24.547  0.00  0.00    +0.000 N 
ATOM      3  C   UNL     1      86.359   2.694  23.716  0.00  0.00    +0.000 A 
ATOM      4  C   UNL     1      85.262   2.732  22.721  0.00  0.00    +0.000 A 
ATOM      5  C   UNL     1      86.057   2.887  25.008  0.00  0.00    +0.000 A 
ATOM      6  C   UNL     1      83.938   2.969  23.153  0.00  0.00    +0.000 A 
ATOM      7  C   UNL     1      85.494   2.541  21.345  0.00  0.00    +0.000 A 
ATOM      8  C   UNL     1      84.683   3.137  25.501  0.00  0.00    +0.000 A 
ATOM      9  C   UNL     1      82.898   3.004  22.202  0.00  0.00    +0.000 A 
ATOM     10  C   UNL     1      84.451   2.580  20.417  0.00  0.00    +0.000 A 
ATOM     11  C   UNL     1      83.154   2.810  20.846  0.00  0.00    +0.000 A 
ATOM     12  C   UNL     1      82.296   3.410  24.978  0.00  0.00    +0.000 C 
ENDROOT
BRANCH  10  15
ATOM     13  S   UNL     1      84.606   0.807  18.337  0.00  0.00    +0.000 S 
ATOM     14  N   UNL     1      85.273   2.753  16.772  0.00  0.00    +0.000 NA
ATOM     15  C   UNL     1      84.723   2.378  19.015  0.00  0.00    +0.000 A 
ATOM     16  C   UNL     1      85.085   3.279  18.035  0.00  0.00    +0.000 A 
ATOM     17  C   UNL     1      85.049   1.459  16.811  0.00  0.00    +0.000 A 
ENDBRANCH  10  15
BRANCH   3  18
ATOM     18  N   UNL     1      87.647   2.466  23.313  0.00  0.00    +0.000 N 
ATOM     19  H   UNL     1      88.157   3.212  22.859  0.00  0.00    +0.000 HD
BRANCH  18  20
ATOM     20  C   UNL     1      88.386   1.272  23.659  0.00  0.00    +0.000 C 
ATOM     21  C   UNL     1      88.415   1.113  25.182  0.00  0.00    +0.000 C 
ATOM     22  C   UNL     1      87.744   0.060  22.981  0.00  0.00    +0.000 C 
ATOM     23  C   UNL     1      88.456  -1.399  24.918  0.00  0.00    +0.000 C 
ATOM     24  C   UNL     1      89.098  -0.189  25.593  0.00  0.00    +0.000 C 
ATOM     25  C   UNL     1      88.426  -1.241  23.398  0.00  0.00    +0.000 C 
BRANCH  23  26
ATOM     26  O   UNL     1      89.204  -2.561  25.263  0.00  0.00    +0.000 OA
BRANCH  26  27
ATOM     27  C   UNL     1      90.206  -2.839  24.295  0.00  0.00    +0.000 C 
BRANCH  27  28
ATOM     28  C   UNL     1      90.402  -4.340  24.205  0.00  0.00    +0.000 C 
BRANCH  28  29
ATOM     29  O   UNL     1      91.019  -4.655  22.962  0.00  0.00    +0.000 OA
ATOM     30  C   UNL     1      90.991  -3.548  22.072  0.00  0.00    +0.000 C 
ENDBRANCH  28  29
ENDBRANCH  27  28
ENDBRANCH  26  27
ENDBRANCH  23  26
ENDBRANCH  18  20
ENDBRANCH   3  18
TORSDOF 7
