REMARK VINA RESULT:      -5.0      3.212      5.631
REMARK  Name = 118736856
REMARK  9 active torsions:
REMARK  status: ('A' for Active; 'I' for Inactive)
REMARK    1  A    between atoms: O_2  and  C_11
REMARK    2  A    between atoms: O_2  and  C_15
REMARK    3  A    between atoms: O_3  and  C_19
REMARK    4  A    between atoms: O_3  and  C_27
REMARK    5  A    between atoms: N_5  and  C_8
REMARK    6  A    between atoms: N_5  and  C_14
REMARK    7  A    between atoms: N_6  and  C_25
REMARK    8  A    between atoms: C_15  and  C_19
REMARK    9  A    between atoms: C_23  and  C_26
REMARK                            x       y       z     vdW  Elec       q    Type
REMARK                         _______ _______ _______ _____ _____    ______ ____
ROOT
ATOM      1  O   UNL     1      83.041   5.061  18.066  0.00  0.00    +0.000 OA
ATOM      2  N   UNL     1      84.046   3.240  17.014  0.00  0.00    +0.000 N 
ATOM      3  C   UNL     1      83.889   1.929  19.543  0.00  0.00    +0.000 A 
ATOM      4  C   UNL     1      84.478   1.236  18.373  0.00  0.00    +0.000 A 
ATOM      5  C   UNL     1      83.435   3.181  19.382  0.00  0.00    +0.000 A 
ATOM      6  C   UNL     1      84.546   1.902  17.130  0.00  0.00    +0.000 A 
ATOM      7  C   UNL     1      84.978  -0.079  18.458  0.00  0.00    +0.000 A 
ATOM      8  C   UNL     1      83.488   3.914  18.096  0.00  0.00    +0.000 A 
ATOM      9  C   UNL     1      85.107   1.237  16.021  0.00  0.00    +0.000 A 
ATOM     10  C   UNL     1      85.531  -0.721  17.348  0.00  0.00    +0.000 A 
ATOM     11  C   UNL     1      85.594  -0.063  16.130  0.00  0.00    +0.000 A 
ATOM     12  C   UNL     1      84.123   3.916  15.720  0.00  0.00    +0.000 C 
ENDROOT
BRANCH  10  15
ATOM     13  S   UNL     1      86.045  -2.846  18.997  0.00  0.00    +0.000 S 
ATOM     14  N   UNL     1      86.946  -4.163  16.962  0.00  0.00    +0.000 NA
ATOM     15  C   UNL     1      86.033  -2.068  17.468  0.00  0.00    +0.000 A 
ATOM     16  C   UNL     1      86.545  -2.920  16.511  0.00  0.00    +0.000 A 
ATOM     17  C   UNL     1      86.728  -4.236  18.256  0.00  0.00    +0.000 A 
ENDBRANCH  10  15
BRANCH   3  18
ATOM     18  N   UNL     1      83.815   1.296  20.754  0.00  0.00    +0.000 N 
ATOM     19  H   UNL     1      83.334   0.408  20.813  0.00  0.00    +0.000 HD
BRANCH  18  20
ATOM     20  C   UNL     1      84.542   1.736  21.925  0.00  0.00    +0.000 C 
ATOM     21  C   UNL     1      84.302   0.755  23.075  0.00  0.00    +0.000 C 
ATOM     22  C   UNL     1      86.030   1.851  21.587  0.00  0.00    +0.000 C 
ATOM     23  C   UNL     1      86.615   1.236  23.967  0.00  0.00    +0.000 C 
ATOM     24  C   UNL     1      85.130   1.123  24.302  0.00  0.00    +0.000 C 
ATOM     25  C   UNL     1      86.856   2.214  22.818  0.00  0.00    +0.000 C 
BRANCH  23  26
ATOM     26  O   UNL     1      87.310   1.681  25.128  0.00  0.00    +0.000 OA
BRANCH  26  27
ATOM     27  C   UNL     1      88.651   1.214  25.141  0.00  0.00    +0.000 C 
BRANCH  27  28
ATOM     28  C   UNL     1      88.656  -0.283  24.897  0.00  0.00    +0.000 C 
BRANCH  28  29
ATOM     29  O   UNL     1      89.209  -0.937  26.032  0.00  0.00    +0.000 OA
ATOM     30  C   UNL     1      88.967  -2.337  25.996  0.00  0.00    +0.000 C 
ENDBRANCH  28  29
ENDBRANCH  27  28
ENDBRANCH  26  27
ENDBRANCH  23  26
ENDBRANCH  18  20
ENDBRANCH   3  18
TORSDOF 7
