REMARK VINA RESULT:      -6.3      3.711      8.291
REMARK  Name = 118736856
REMARK  9 active torsions:
REMARK  status: ('A' for Active; 'I' for Inactive)
REMARK    1  A    between atoms: O_2  and  C_11
REMARK    2  A    between atoms: O_2  and  C_15
REMARK    3  A    between atoms: O_3  and  C_19
REMARK    4  A    between atoms: O_3  and  C_27
REMARK    5  A    between atoms: N_5  and  C_8
REMARK    6  A    between atoms: N_5  and  C_14
REMARK    7  A    between atoms: N_6  and  C_25
REMARK    8  A    between atoms: C_15  and  C_19
REMARK    9  A    between atoms: C_23  and  C_26
REMARK                            x       y       z     vdW  Elec       q    Type
REMARK                         _______ _______ _______ _____ _____    ______ ____
ROOT
ATOM      1  O   UNL     1      88.751  -3.330  27.851  0.00  0.00    +0.000 OA
ATOM      2  N   UNL     1      89.596  -4.385  25.953  0.00  0.00    +0.000 N 
ATOM      3  C   UNL     1      89.205  -1.893  24.621  0.00  0.00    +0.000 A 
ATOM      4  C   UNL     1      89.760  -3.055  23.889  0.00  0.00    +0.000 A 
ATOM      5  C   UNL     1      88.893  -2.042  25.916  0.00  0.00    +0.000 A 
ATOM      6  C   UNL     1      89.946  -4.280  24.567  0.00  0.00    +0.000 A 
ATOM      7  C   UNL     1      90.113  -2.982  22.527  0.00  0.00    +0.000 A 
ATOM      8  C   UNL     1      89.073  -3.309  26.663  0.00  0.00    +0.000 A 
ATOM      9  C   UNL     1      90.475  -5.383  23.866  0.00  0.00    +0.000 A 
ATOM     10  C   UNL     1      90.635  -4.085  21.849  0.00  0.00    +0.000 A 
ATOM     11  C   UNL     1      90.817  -5.285  22.519  0.00  0.00    +0.000 A 
ATOM     12  C   UNL     1      89.795  -5.659  26.640  0.00  0.00    +0.000 C 
ENDROOT
BRANCH  10  15
ATOM     13  S   UNL     1      90.575  -5.237  19.366  0.00  0.00    +0.000 S 
ATOM     14  N   UNL     1      91.827  -3.183  18.420  0.00  0.00    +0.000 NA
ATOM     15  C   UNL     1      90.987  -3.977  20.455  0.00  0.00    +0.000 A 
ATOM     16  C   UNL     1      91.644  -2.974  19.773  0.00  0.00    +0.000 A 
ATOM     17  C   UNL     1      91.304  -4.344  18.094  0.00  0.00    +0.000 A 
ENDBRANCH  10  15
BRANCH   3  18
ATOM     18  N   UNL     1      89.020  -0.698  23.978  0.00  0.00    +0.000 N 
ATOM     19  H   UNL     1      89.689  -0.411  23.276  0.00  0.00    +0.000 HD
BRANCH  18  20
ATOM     20  C   UNL     1      87.820   0.098  24.115  0.00  0.00    +0.000 C 
ATOM     21  C   UNL     1      88.078   1.245  25.095  0.00  0.00    +0.000 C 
ATOM     22  C   UNL     1      87.394   0.619  22.740  0.00  0.00    +0.000 C 
ATOM     23  C   UNL     1      86.446   2.696  23.824  0.00  0.00    +0.000 C 
ATOM     24  C   UNL     1      86.871   2.174  25.195  0.00  0.00    +0.000 C 
ATOM     25  C   UNL     1      86.190   1.551  22.845  0.00  0.00    +0.000 C 
BRANCH  23  26
ATOM     26  O   UNL     1      85.259   3.467  23.980  0.00  0.00    +0.000 OA
BRANCH  26  27
ATOM     27  C   UNL     1      84.942   3.661  25.351  0.00  0.00    +0.000 C 
BRANCH  27  28
ATOM     28  C   UNL     1      83.638   4.428  25.452  0.00  0.00    +0.000 C 
BRANCH  28  29
ATOM     29  O   UNL     1      83.539   5.325  24.352  0.00  0.00    +0.000 OA
ATOM     30  C   UNL     1      82.187   5.648  24.063  0.00  0.00    +0.000 C 
ENDBRANCH  28  29
ENDBRANCH  27  28
ENDBRANCH  26  27
ENDBRANCH  23  26
ENDBRANCH  18  20
ENDBRANCH   3  18
TORSDOF 7
