REMARK VINA RESULT:      -4.2      5.775      6.793
REMARK  Name = 168679856
REMARK  8 active torsions:
REMARK  status: ('A' for Active; 'I' for Inactive)
REMARK    1  A    between atoms: O_4  and  C_23
REMARK    2  A    between atoms: O_4  and  C_28
REMARK    3  A    between atoms: O_5  and  C_24
REMARK    4  A    between atoms: O_5  and  C_29
REMARK    5  A    between atoms: N_10  and  C_19
REMARK    6  A    between atoms: C_14  and  C_18
REMARK    7  A    between atoms: C_16  and  C_20
REMARK    8  A    between atoms: C_23  and  C_24
REMARK                            x       y       z     vdW  Elec       q    Type
REMARK                         _______ _______ _______ _____ _____    ______ ____
ROOT
ATOM      1  N   UNL     1      88.193  -3.112  25.352  0.00  0.00    +0.000 N 
ATOM      2  N   UNL     1      87.098  -2.349  23.446  0.00  0.00    +0.000 NA
ATOM      3  N   UNL     1      88.379  -0.852  24.835  0.00  0.00    +0.000 NA
ATOM      4  N   UNL     1      89.081  -4.212  27.065  0.00  0.00    +0.000 NA
ATOM      5  C   UNL     1      86.808  -1.301  22.648  0.00  0.00    +0.000 A 
ATOM      6  C   UNL     1      87.876  -2.057  24.506  0.00  0.00    +0.000 A 
ATOM      7  C   UNL     1      88.049   0.150  23.993  0.00  0.00    +0.000 A 
ATOM      8  C   UNL     1      87.260  -0.018  22.873  0.00  0.00    +0.000 A 
ATOM      9  C   UNL     1      87.793  -4.411  25.211  0.00  0.00    +0.000 A 
ATOM     10  C   UNL     1      88.964  -3.042  26.479  0.00  0.00    +0.000 A 
ATOM     11  C   UNL     1      88.353  -5.071  26.279  0.00  0.00    +0.000 A 
ENDROOT
BRANCH   7  15
ATOM     12  F   UNL     1      89.368   1.523  25.439  0.00  0.00    +0.000 F 
ATOM     13  F   UNL     1      89.363   2.015  23.321  0.00  0.00    +0.000 F 
ATOM     14  F   UNL     1      87.616   2.439  24.544  0.00  0.00    +0.000 F 
ATOM     15  C   UNL     1      88.586   1.504  24.319  0.00  0.00    +0.000 C 
ENDBRANCH   7  15
BRANCH   5  18
ATOM     16  O   UNL     1      85.430  -2.710  21.412  0.00  0.00    +0.000 OA
ATOM     17  N   UNL     1      85.802  -0.555  20.547  0.00  0.00    +0.000 N 
ATOM     18  C   UNL     1      85.950  -1.601  21.472  0.00  0.00    +0.000 C 
ATOM     19  H   UNL     1      86.304   0.307  20.751  0.00  0.00    +0.000 HD
BRANCH  17  22
ATOM     20  N   UNL     1      84.715  -1.258  17.106  0.00  0.00    +0.000 NA
ATOM     21  N   UNL     1      83.123   0.218  18.151  0.00  0.00    +0.000 NA
ATOM     22  C   UNL     1      85.048  -0.541  19.378  0.00  0.00    +0.000 A 
ATOM     23  C   UNL     1      85.422  -1.249  18.255  0.00  0.00    +0.000 A 
ATOM     24  C   UNL     1      83.878   0.182  19.268  0.00  0.00    +0.000 A 
ATOM     25  C   UNL     1      83.593  -0.514  17.122  0.00  0.00    +0.000 A 
BRANCH  25  26
ATOM     26  O   UNL     1      82.846  -0.501  15.967  0.00  0.00    +0.000 OA
BRANCH  26  27
ATOM     27  C   UNL     1      82.483  -1.766  15.433  0.00  0.00    +0.000 C 
BRANCH  27  28
ATOM     28  C   UNL     1      81.360  -2.352  16.268  0.00  0.00    +0.000 C 
BRANCH  28  29
ATOM     29  O   UNL     1      81.504  -3.766  16.314  0.00  0.00    +0.000 OA
ATOM     30  C   UNL     1      82.825  -4.166  15.978  0.00  0.00    +0.000 C 
ENDBRANCH  28  29
ENDBRANCH  27  28
ENDBRANCH  26  27
ENDBRANCH  25  26
ENDBRANCH  17  22
ENDBRANCH   5  18
TORSDOF 7
