REMARK VINA RESULT:      -5.1      3.876      7.918
REMARK  Name = 118736856
REMARK  9 active torsions:
REMARK  status: ('A' for Active; 'I' for Inactive)
REMARK    1  A    between atoms: O_2  and  C_11
REMARK    2  A    between atoms: O_2  and  C_15
REMARK    3  A    between atoms: O_3  and  C_19
REMARK    4  A    between atoms: O_3  and  C_27
REMARK    5  A    between atoms: N_5  and  C_8
REMARK    6  A    between atoms: N_5  and  C_14
REMARK    7  A    between atoms: N_6  and  C_25
REMARK    8  A    between atoms: C_15  and  C_19
REMARK    9  A    between atoms: C_23  and  C_26
REMARK                            x       y       z     vdW  Elec       q    Type
REMARK                         _______ _______ _______ _____ _____    ______ ____
ROOT
ATOM      1  O   UNL     1      82.519   4.618  23.348  0.00  0.00    +0.000 OA
ATOM      2  N   UNL     1      84.351   3.520  24.281  0.00  0.00    +0.000 N 
ATOM      3  C   UNL     1      84.208   1.766  22.035  0.00  0.00    +0.000 A 
ATOM      4  C   UNL     1      85.247   1.573  23.073  0.00  0.00    +0.000 A 
ATOM      5  C   UNL     1      83.342   2.780  22.178  0.00  0.00    +0.000 A 
ATOM      6  C   UNL     1      85.301   2.452  24.177  0.00  0.00    +0.000 A 
ATOM      7  C   UNL     1      86.194   0.532  22.998  0.00  0.00    +0.000 A 
ATOM      8  C   UNL     1      83.365   3.723  23.320  0.00  0.00    +0.000 A 
ATOM      9  C   UNL     1      86.292   2.264  25.161  0.00  0.00    +0.000 A 
ATOM     10  C   UNL     1      87.168   0.361  23.983  0.00  0.00    +0.000 A 
ATOM     11  C   UNL     1      87.217   1.227  25.063  0.00  0.00    +0.000 A 
ATOM     12  C   UNL     1      84.419   4.422  25.429  0.00  0.00    +0.000 C 
ENDROOT
BRANCH  10  15
ATOM     13  S   UNL     1      88.956  -1.264  25.272  0.00  0.00    +0.000 S 
ATOM     14  N   UNL     1      89.478  -2.420  23.019  0.00  0.00    +0.000 NA
ATOM     15  C   UNL     1      88.124  -0.714  23.876  0.00  0.00    +0.000 A 
ATOM     16  C   UNL     1      88.529  -1.445  22.778  0.00  0.00    +0.000 A 
ATOM     17  C   UNL     1      89.778  -2.415  24.299  0.00  0.00    +0.000 A 
ENDBRANCH  10  15
BRANCH   3  18
ATOM     18  N   UNL     1      84.144   0.923  20.959  0.00  0.00    +0.000 N 
ATOM     19  H   UNL     1      83.626   0.058  21.045  0.00  0.00    +0.000 HD
BRANCH  18  20
ATOM     20  C   UNL     1      84.625   1.279  19.642  0.00  0.00    +0.000 C 
ATOM     21  C   UNL     1      83.607   0.837  18.588  0.00  0.00    +0.000 C 
ATOM     22  C   UNL     1      84.875   2.788  19.582  0.00  0.00    +0.000 C 
ATOM     23  C   UNL     1      84.272   2.788  17.128  0.00  0.00    +0.000 C 
ATOM     24  C   UNL     1      84.024   1.282  17.190  0.00  0.00    +0.000 C 
ATOM     25  C   UNL     1      85.287   3.230  18.181  0.00  0.00    +0.000 C 
BRANCH  23  26
ATOM     26  O   UNL     1      84.755   3.116  15.830  0.00  0.00    +0.000 OA
BRANCH  26  27
ATOM     27  C   UNL     1      84.556   4.490  15.533  0.00  0.00    +0.000 C 
BRANCH  27  28
ATOM     28  C   UNL     1      83.077   4.807  15.631  0.00  0.00    +0.000 C 
BRANCH  28  29
ATOM     29  O   UNL     1      82.917   6.149  16.075  0.00  0.00    +0.000 OA
ATOM     30  C   UNL     1      84.096   6.636  16.699  0.00  0.00    +0.000 C 
ENDBRANCH  28  29
ENDBRANCH  27  28
ENDBRANCH  26  27
ENDBRANCH  23  26
ENDBRANCH  18  20
ENDBRANCH   3  18
TORSDOF 7
