REMARK VINA RESULT:      -5.0      3.661      7.767
REMARK  Name = 118736856
REMARK  9 active torsions:
REMARK  status: ('A' for Active; 'I' for Inactive)
REMARK    1  A    between atoms: O_2  and  C_11
REMARK    2  A    between atoms: O_2  and  C_15
REMARK    3  A    between atoms: O_3  and  C_19
REMARK    4  A    between atoms: O_3  and  C_27
REMARK    5  A    between atoms: N_5  and  C_8
REMARK    6  A    between atoms: N_5  and  C_14
REMARK    7  A    between atoms: N_6  and  C_25
REMARK    8  A    between atoms: C_15  and  C_19
REMARK    9  A    between atoms: C_23  and  C_26
REMARK                            x       y       z     vdW  Elec       q    Type
REMARK                         _______ _______ _______ _____ _____    ______ ____
ROOT
ATOM      1  O   UNL     1      84.655   2.245  18.874  0.00  0.00    +0.000 OA
ATOM      2  N   UNL     1      85.277   0.277  19.957  0.00  0.00    +0.000 N 
ATOM      3  C   UNL     1      86.108   1.946  22.116  0.00  0.00    +0.000 A 
ATOM      4  C   UNL     1      86.255   0.475  22.206  0.00  0.00    +0.000 A 
ATOM      5  C   UNL     1      85.577   2.469  21.001  0.00  0.00    +0.000 A 
ATOM      6  C   UNL     1      85.837  -0.334  21.125  0.00  0.00    +0.000 A 
ATOM      7  C   UNL     1      86.803  -0.154  23.341  0.00  0.00    +0.000 A 
ATOM      8  C   UNL     1      85.127   1.656  19.847  0.00  0.00    +0.000 A 
ATOM      9  C   UNL     1      85.980  -1.733  21.217  0.00  0.00    +0.000 A 
ATOM     10  C   UNL     1      86.937  -1.541  23.413  0.00  0.00    +0.000 A 
ATOM     11  C   UNL     1      86.524  -2.331  22.351  0.00  0.00    +0.000 A 
ATOM     12  C   UNL     1      84.848  -0.574  18.848  0.00  0.00    +0.000 C 
ENDROOT
BRANCH  10  15
ATOM     13  S   UNL     1      88.854  -1.438  25.366  0.00  0.00    +0.000 S 
ATOM     14  N   UNL     1      87.892  -3.613  26.378  0.00  0.00    +0.000 NA
ATOM     15  C   UNL     1      87.501  -2.154  24.591  0.00  0.00    +0.000 A 
ATOM     16  C   UNL     1      87.131  -3.297  25.269  0.00  0.00    +0.000 A 
ATOM     17  C   UNL     1      88.829  -2.704  26.525  0.00  0.00    +0.000 A 
ENDBRANCH  10  15
BRANCH   3  18
ATOM     18  N   UNL     1      86.507   2.743  23.155  0.00  0.00    +0.000 N 
ATOM     19  H   UNL     1      87.488   2.971  23.248  0.00  0.00    +0.000 HD
BRANCH  18  20
ATOM     20  C   UNL     1      85.581   3.429  24.029  0.00  0.00    +0.000 C 
ATOM     21  C   UNL     1      84.146   3.065  23.640  0.00  0.00    +0.000 C 
ATOM     22  C   UNL     1      85.880   3.055  25.483  0.00  0.00    +0.000 C 
ATOM     23  C   UNL     1      83.431   3.312  26.050  0.00  0.00    +0.000 C 
ATOM     24  C   UNL     1      83.135   3.685  24.599  0.00  0.00    +0.000 C 
ATOM     25  C   UNL     1      84.864   3.674  26.439  0.00  0.00    +0.000 C 
BRANCH  23  26
ATOM     26  O   UNL     1      82.517   4.005  26.893  0.00  0.00    +0.000 OA
BRANCH  26  27
ATOM     27  C   UNL     1      82.017   3.162  27.921  0.00  0.00    +0.000 C 
BRANCH  27  28
ATOM     28  C   UNL     1      82.386   3.753  29.268  0.00  0.00    +0.000 C 
BRANCH  28  29
ATOM     29  O   UNL     1      83.652   3.242  29.668  0.00  0.00    +0.000 OA
ATOM     30  C   UNL     1      84.382   4.195  30.428  0.00  0.00    +0.000 C 
ENDBRANCH  28  29
ENDBRANCH  27  28
ENDBRANCH  26  27
ENDBRANCH  23  26
ENDBRANCH  18  20
ENDBRANCH   3  18
TORSDOF 7
