REMARK VINA RESULT:      -4.5      1.943      4.733
REMARK  Name = 155598690
REMARK  7 active torsions:
REMARK  status: ('A' for Active; 'I' for Inactive)
REMARK    1  A    between atoms: O_1  and  C_11
REMARK    2  A    between atoms: O_1  and  C_16
REMARK    3  A    between atoms: O_3  and  C_19
REMARK    4  A    between atoms: O_3  and  C_25
REMARK    5  A    between atoms: N_4  and  C_10
REMARK    6  A    between atoms: C_16  and  C_19
REMARK    7  A    between atoms: C_17  and  C_18
REMARK                            x       y       z     vdW  Elec       q    Type
REMARK                         _______ _______ _______ _____ _____    ______ ____
ROOT
ATOM      1  O   UNL     1      88.577   0.175  22.908  0.00  0.00    +0.000 OA
ATOM      2  N   UNL     1      86.759  -0.468  24.195  0.00  0.00    +0.000 N 
ATOM      3  C   UNL     1      88.006  -0.648  23.617  0.00  0.00    +0.000 C 
ATOM      4  H   UNL     1      86.344  -1.231  24.724  0.00  0.00    +0.000 HD
ENDROOT
BRANCH   3  10
ATOM      5  N   UNL     1      88.633  -2.432  25.145  0.00  0.00    +0.000 NA
ATOM      6  N   UNL     1      89.486  -2.516  21.566  0.00  0.00    +0.000 N 
ATOM      7  N   UNL     1      89.864  -4.429  24.499  0.00  0.00    +0.000 NA
ATOM      8  N   UNL     1      89.182  -4.078  26.687  0.00  0.00    +0.000 N 
ATOM      9  N   UNL     1      89.504  -5.394  28.446  0.00  0.00    +0.000 NA
ATOM     10  C   UNL     1      88.659  -1.956  23.881  0.00  0.00    +0.000 A 
ATOM     11  C   UNL     1      89.290  -2.712  22.909  0.00  0.00    +0.000 A 
ATOM     12  C   UNL     1      89.877  -3.930  23.239  0.00  0.00    +0.000 A 
ATOM     13  C   UNL     1      89.229  -3.623  25.374  0.00  0.00    +0.000 A 
ATOM     14  C   UNL     1      90.437  -4.469  22.055  0.00  0.00    +0.000 A 
ATOM     15  C   UNL     1      90.181  -3.575  21.039  0.00  0.00    +0.000 A 
ATOM     16  C   UNL     1      88.597  -3.440  27.743  0.00  0.00    +0.000 A 
ATOM     17  C   UNL     1      89.713  -5.246  27.157  0.00  0.00    +0.000 A 
ATOM     18  C   UNL     1      88.808  -4.271  28.818  0.00  0.00    +0.000 A 
ATOM     19  H   UNL     1      89.167  -1.712  21.040  0.00  0.00    +0.000 HD
ENDBRANCH   3  10
BRANCH   2  20
ATOM     20  C   UNL     1      85.987   0.738  24.011  0.00  0.00    +0.000 C 
ATOM     21  C   UNL     1      84.118   2.806  24.985  0.00  0.00    +0.000 C 
ATOM     22  C   UNL     1      84.492   0.446  24.162  0.00  0.00    +0.000 C 
ATOM     23  C   UNL     1      86.448   1.828  24.983  0.00  0.00    +0.000 C 
ATOM     24  C   UNL     1      83.659   1.717  24.017  0.00  0.00    +0.000 C 
ATOM     25  C   UNL     1      85.609   3.094  24.834  0.00  0.00    +0.000 C 
BRANCH  21  26
ATOM     26  O   UNL     1      83.393   4.005  24.734  0.00  0.00    +0.000 OA
BRANCH  26  27
ATOM     27  C   UNL     1      83.057   4.132  23.361  0.00  0.00    +0.000 C 
BRANCH  27  28
ATOM     28  C   UNL     1      81.602   4.544  23.243  0.00  0.00    +0.000 C 
BRANCH  28  29
ATOM     29  O   UNL     1      81.209   4.474  21.878  0.00  0.00    +0.000 OA
ATOM     30  C   UNL     1      81.958   3.496  21.170  0.00  0.00    +0.000 C 
ENDBRANCH  28  29
ENDBRANCH  27  28
ENDBRANCH  26  27
ENDBRANCH  21  26
ENDBRANCH   2  20
TORSDOF 6
