REMARK VINA RESULT:      -5.3     14.129     16.875
REMARK  Name = 441667
REMARK  12 active torsions:
REMARK  status: ('A' for Active; 'I' for Inactive)
REMARK    1  A    between atoms: O_2  and  C_16
REMARK    2  A    between atoms: O_2  and  C_18
REMARK    3  A    between atoms: O_3  and  C_12
REMARK    4  A    between atoms: O_4  and  C_13
REMARK    5  A    between atoms: O_5  and  C_14
REMARK    6  A    between atoms: O_6  and  C_17
REMARK    7  A    between atoms: O_8  and  C_24
REMARK    8  A    between atoms: O_9  and  C_29
REMARK    9  A    between atoms: O_10  and  C_30
REMARK   10  A    between atoms: O_11  and  C_32
REMARK   11  A    between atoms: C_15  and  C_17
REMARK   12  A    between atoms: C_19  and  C_23
REMARK                            x       y       z     vdW  Elec       q    Type
REMARK                         _______ _______ _______ _____ _____    ______ ____
ROOT
ATOM      1  O   UNL     1      84.126   2.643  21.726  0.00  0.00    +0.000 OA
ATOM      2  C   UNL     1      85.160   0.537  22.518  0.00  0.00    +0.000 A 
ATOM      3  C   UNL     1      84.548   1.890  22.703  0.00  0.00    +0.000 A 
ATOM      4  C   UNL     1      85.317   0.116  21.256  0.00  0.00    +0.000 A 
ATOM      5  C   UNL     1      84.893   0.949  20.135  0.00  0.00    +0.000 A 
ATOM      6  C   UNL     1      84.298   2.185  20.407  0.00  0.00    +0.000 A 
ATOM      7  C   UNL     1      85.053   0.534  18.810  0.00  0.00    +0.000 A 
ATOM      8  C   UNL     1      83.866   3.002  19.361  0.00  0.00    +0.000 A 
ATOM      9  C   UNL     1      84.620   1.353  17.765  0.00  0.00    +0.000 A 
ATOM     10  C   UNL     1      84.027   2.585  18.041  0.00  0.00    +0.000 A 
ENDROOT
BRANCH   3  11
ATOM     11  C   UNL     1      84.389   2.384  24.091  0.00  0.00    +0.000 A 
ATOM     12  C   UNL     1      83.572   1.692  24.978  0.00  0.00    +0.000 A 
ATOM     13  C   UNL     1      85.058   3.535  24.492  0.00  0.00    +0.000 A 
ATOM     14  C   UNL     1      83.424   2.158  26.286  0.00  0.00    +0.000 A 
ATOM     15  C   UNL     1      84.909   3.999  25.799  0.00  0.00    +0.000 A 
ATOM     16  C   UNL     1      84.092   3.311  26.695  0.00  0.00    +0.000 A 
BRANCH  14  17
ATOM     17  O   UNL     1      82.623   1.476  27.151  0.00  0.00    +0.000 OA
ATOM     18  H   UNL     1      82.251   2.112  27.788  0.00  0.00    +0.000 HD
ENDBRANCH  14  17
BRANCH  16  19
ATOM     19  O   UNL     1      83.954   3.776  27.968  0.00  0.00    +0.000 OA
ATOM     20  H   UNL     1      84.747   4.286  28.207  0.00  0.00    +0.000 HD
ENDBRANCH  16  19
ENDBRANCH   3  11
BRANCH   7  21
ATOM     21  O   UNL     1      85.625  -0.664  18.500  0.00  0.00    +0.000 OA
ATOM     22  H   UNL     1      84.944  -1.347  18.394  0.00  0.00    +0.000 HD
ENDBRANCH   7  21
BRANCH  10  23
ATOM     23  O   UNL     1      83.606   3.380  17.020  0.00  0.00    +0.000 OA
ATOM     24  H   UNL     1      82.703   3.687  17.212  0.00  0.00    +0.000 HD
ENDBRANCH  10  23
BRANCH   2  25
ATOM     25  O   UNL     1      85.486  -0.235  23.609  0.00  0.00    +0.000 OA
BRANCH  25  31
ATOM     26  O   UNL     1      86.850  -2.123  23.473  0.00  0.00    +0.000 OA
ATOM     27  C   UNL     1      88.976  -0.795  24.875  0.00  0.00    +0.000 C 
ATOM     28  C   UNL     1      88.968  -2.305  24.638  0.00  0.00    +0.000 C 
ATOM     29  C   UNL     1      87.563  -0.215  24.794  0.00  0.00    +0.000 C 
ATOM     30  C   UNL     1      88.174  -2.653  23.377  0.00  0.00    +0.000 C 
ATOM     31  C   UNL     1      86.834  -0.700  23.541  0.00  0.00    +0.000 C 
BRANCH  27  32
ATOM     32  O   UNL     1      89.514  -0.554  26.176  0.00  0.00    +0.000 OA
ATOM     33  H   UNL     1      89.024   0.186  26.575  0.00  0.00    +0.000 HD
ENDBRANCH  27  32
BRANCH  28  34
ATOM     34  O   UNL     1      90.309  -2.767  24.493  0.00  0.00    +0.000 OA
ATOM     35  H   UNL     1      90.339  -3.691  24.789  0.00  0.00    +0.000 HD
ENDBRANCH  28  34
BRANCH  29  36
ATOM     36  O   UNL     1      87.638   1.210  24.744  0.00  0.00    +0.000 OA
ATOM     37  H   UNL     1      88.272   1.492  25.426  0.00  0.00    +0.000 HD
ENDBRANCH  29  36
BRANCH  30  38
ATOM     38  C   UNL     1      88.054  -4.161  23.183  0.00  0.00    +0.000 C 
BRANCH  38  39
ATOM     39  O   UNL     1      89.217  -4.625  22.522  0.00  0.00    +0.000 OA
ATOM     40  H   UNL     1      89.456  -5.484  22.912  0.00  0.00    +0.000 HD
ENDBRANCH  38  39
ENDBRANCH  30  38
ENDBRANCH  25  31
ENDBRANCH   2  25
TORSDOF 12
