REMARK VINA RESULT:      -5.0     14.154     16.785
REMARK  Name = 441667
REMARK  12 active torsions:
REMARK  status: ('A' for Active; 'I' for Inactive)
REMARK    1  A    between atoms: O_2  and  C_16
REMARK    2  A    between atoms: O_2  and  C_18
REMARK    3  A    between atoms: O_3  and  C_12
REMARK    4  A    between atoms: O_4  and  C_13
REMARK    5  A    between atoms: O_5  and  C_14
REMARK    6  A    between atoms: O_6  and  C_17
REMARK    7  A    between atoms: O_8  and  C_24
REMARK    8  A    between atoms: O_9  and  C_29
REMARK    9  A    between atoms: O_10  and  C_30
REMARK   10  A    between atoms: O_11  and  C_32
REMARK   11  A    between atoms: C_15  and  C_17
REMARK   12  A    between atoms: C_19  and  C_23
REMARK                            x       y       z     vdW  Elec       q    Type
REMARK                         _______ _______ _______ _____ _____    ______ ____
ROOT
ATOM      1  O   UNL     1      83.192   3.277  23.412  0.00  0.00    +0.000 OA
ATOM      2  C   UNL     1      85.510   2.426  23.603  0.00  0.00    +0.000 A 
ATOM      3  C   UNL     1      84.224   2.968  24.145  0.00  0.00    +0.000 A 
ATOM      4  C   UNL     1      85.596   2.304  22.272  0.00  0.00    +0.000 A 
ATOM      5  C   UNL     1      84.475   2.677  21.416  0.00  0.00    +0.000 A 
ATOM      6  C   UNL     1      83.300   3.141  22.015  0.00  0.00    +0.000 A 
ATOM      7  C   UNL     1      84.545   2.564  20.025  0.00  0.00    +0.000 A 
ATOM      8  C   UNL     1      82.201   3.492  21.230  0.00  0.00    +0.000 A 
ATOM      9  C   UNL     1      83.445   2.916  19.240  0.00  0.00    +0.000 A 
ATOM     10  C   UNL     1      82.275   3.379  19.842  0.00  0.00    +0.000 A 
ENDROOT
BRANCH   3  11
ATOM     11  C   UNL     1      84.118   3.134  25.614  0.00  0.00    +0.000 A 
ATOM     12  C   UNL     1      83.178   2.395  26.324  0.00  0.00    +0.000 A 
ATOM     13  C   UNL     1      84.959   4.028  26.268  0.00  0.00    +0.000 A 
ATOM     14  C   UNL     1      83.080   2.553  27.707  0.00  0.00    +0.000 A 
ATOM     15  C   UNL     1      84.860   4.184  27.650  0.00  0.00    +0.000 A 
ATOM     16  C   UNL     1      83.920   3.447  28.370  0.00  0.00    +0.000 A 
BRANCH  14  17
ATOM     17  O   UNL     1      82.158   1.826  28.399  0.00  0.00    +0.000 OA
ATOM     18  H   UNL     1      82.572   0.988  28.671  0.00  0.00    +0.000 HD
ENDBRANCH  14  17
BRANCH  16  19
ATOM     19  O   UNL     1      83.832   3.610  29.719  0.00  0.00    +0.000 OA
ATOM     20  H   UNL     1      83.161   2.999  30.069  0.00  0.00    +0.000 HD
ENDBRANCH  16  19
ENDBRANCH   3  11
BRANCH   7  21
ATOM     21  O   UNL     1      85.669   2.113  19.399  0.00  0.00    +0.000 OA
ATOM     22  H   UNL     1      86.023   2.793  18.805  0.00  0.00    +0.000 HD
ENDBRANCH   7  21
BRANCH  10  23
ATOM     23  O   UNL     1      81.204   3.720  19.074  0.00  0.00    +0.000 OA
ATOM     24  H   UNL     1      81.201   4.685  18.948  0.00  0.00    +0.000 HD
ENDBRANCH  10  23
BRANCH   2  25
ATOM     25  O   UNL     1      86.514   2.031  24.458  0.00  0.00    +0.000 OA
BRANCH  25  31
ATOM     26  O   UNL     1      86.074  -0.221  24.040  0.00  0.00    +0.000 OA
ATOM     27  C   UNL     1      88.744  -0.970  24.792  0.00  0.00    +0.000 C 
ATOM     28  C   UNL     1      87.623  -1.995  24.619  0.00  0.00    +0.000 C 
ATOM     29  C   UNL     1      88.180   0.426  25.059  0.00  0.00    +0.000 C 
ATOM     30  C   UNL     1      86.576  -1.493  23.622  0.00  0.00    +0.000 C 
ATOM     31  C   UNL     1      87.084   0.785  24.058  0.00  0.00    +0.000 C 
BRANCH  27  32
ATOM     32  O   UNL     1      89.550  -1.378  25.898  0.00  0.00    +0.000 OA
ATOM     33  H   UNL     1      89.873  -0.578  26.348  0.00  0.00    +0.000 HD
ENDBRANCH  27  32
BRANCH  28  34
ATOM     34  O   UNL     1      88.173  -3.222  24.147  0.00  0.00    +0.000 OA
ATOM     35  H   UNL     1      87.491  -3.908  24.237  0.00  0.00    +0.000 HD
ENDBRANCH  28  34
BRANCH  29  36
ATOM     36  O   UNL     1      89.227   1.390  24.940  0.00  0.00    +0.000 OA
ATOM     37  H   UNL     1      88.827   2.269  25.050  0.00  0.00    +0.000 HD
ENDBRANCH  29  36
BRANCH  30  38
ATOM     38  C   UNL     1      85.389  -2.446  23.521  0.00  0.00    +0.000 C 
BRANCH  38  39
ATOM     39  O   UNL     1      85.308  -3.193  24.721  0.00  0.00    +0.000 OA
ATOM     40  H   UNL     1      84.820  -2.657  25.370  0.00  0.00    +0.000 HD
ENDBRANCH  38  39
ENDBRANCH  30  38
ENDBRANCH  25  31
ENDBRANCH   2  25
TORSDOF 12
