REMARK VINA RESULT:      -6.0      0.000      0.000
REMARK  Name = 441667
REMARK  12 active torsions:
REMARK  status: ('A' for Active; 'I' for Inactive)
REMARK    1  A    between atoms: O_2  and  C_16
REMARK    2  A    between atoms: O_2  and  C_18
REMARK    3  A    between atoms: O_3  and  C_12
REMARK    4  A    between atoms: O_4  and  C_13
REMARK    5  A    between atoms: O_5  and  C_14
REMARK    6  A    between atoms: O_6  and  C_17
REMARK    7  A    between atoms: O_8  and  C_24
REMARK    8  A    between atoms: O_9  and  C_29
REMARK    9  A    between atoms: O_10  and  C_30
REMARK   10  A    between atoms: O_11  and  C_32
REMARK   11  A    between atoms: C_15  and  C_17
REMARK   12  A    between atoms: C_19  and  C_23
REMARK                            x       y       z     vdW  Elec       q    Type
REMARK                         _______ _______ _______ _____ _____    ______ ____
ROOT
ATOM      1  O   UNL     1      98.372   5.036  31.677  0.00  0.00    +0.000 OA
ATOM      2  C   UNL     1     100.289   3.883  30.614  0.00  0.00    +0.000 A 
ATOM      3  C   UNL     1      99.129   4.829  30.636  0.00  0.00    +0.000 A 
ATOM      4  C   UNL     1     100.512   3.181  31.732  0.00  0.00    +0.000 A 
ATOM      5  C   UNL     1      99.662   3.357  32.905  0.00  0.00    +0.000 A 
ATOM      6  C   UNL     1      98.623   4.290  32.844  0.00  0.00    +0.000 A 
ATOM      7  C   UNL     1      99.873   2.631  34.081  0.00  0.00    +0.000 A 
ATOM      8  C   UNL     1      97.799   4.498  33.951  0.00  0.00    +0.000 A 
ATOM      9  C   UNL     1      99.047   2.839  35.187  0.00  0.00    +0.000 A 
ATOM     10  C   UNL     1      98.011   3.771  35.122  0.00  0.00    +0.000 A 
ENDROOT
BRANCH   3  11
ATOM     11  C   UNL     1      98.849   5.597  29.400  0.00  0.00    +0.000 A 
ATOM     12  C   UNL     1      99.861   6.345  28.811  0.00  0.00    +0.000 A 
ATOM     13  C   UNL     1      97.576   5.559  28.841  0.00  0.00    +0.000 A 
ATOM     14  C   UNL     1      99.596   7.067  27.646  0.00  0.00    +0.000 A 
ATOM     15  C   UNL     1      97.313   6.281  27.677  0.00  0.00    +0.000 A 
ATOM     16  C   UNL     1      98.322   7.035  27.080  0.00  0.00    +0.000 A 
BRANCH  14  17
ATOM     17  O   UNL     1     100.591   7.799  27.073  0.00  0.00    +0.000 OA
ATOM     18  H   UNL     1     100.893   8.463  27.718  0.00  0.00    +0.000 HD
ENDBRANCH  14  17
BRANCH  16  19
ATOM     19  O   UNL     1      98.052   7.736  25.944  0.00  0.00    +0.000 OA
ATOM     20  H   UNL     1      97.605   7.151  25.308  0.00  0.00    +0.000 HD
ENDBRANCH  16  19
ENDBRANCH   3  11
BRANCH   7  21
ATOM     21  O   UNL     1     100.876   1.714  34.185  0.00  0.00    +0.000 OA
ATOM     22  H   UNL     1     100.766   1.014  33.522  0.00  0.00    +0.000 HD
ENDBRANCH   7  21
BRANCH  10  23
ATOM     23  O   UNL     1      97.208   3.972  36.203  0.00  0.00    +0.000 OA
ATOM     24  H   UNL     1      97.004   4.921  36.271  0.00  0.00    +0.000 HD
ENDBRANCH  10  23
BRANCH   2  25
ATOM     25  O   UNL     1     101.098   3.799  29.504  0.00  0.00    +0.000 OA
BRANCH  25  31
ATOM     26  O   UNL     1     100.378   1.615  29.114  0.00  0.00    +0.000 OA
ATOM     27  C   UNL     1     101.129   1.770  26.346  0.00  0.00    +0.000 C 
ATOM     28  C   UNL     1     100.784   0.446  27.029  0.00  0.00    +0.000 C 
ATOM     29  C   UNL     1     101.552   2.826  27.368  0.00  0.00    +0.000 C 
ATOM     30  C   UNL     1      99.820   0.672  28.196  0.00  0.00    +0.000 C 
ATOM     31  C   UNL     1     100.563   2.902  28.530  0.00  0.00    +0.000 C 
BRANCH  27  32
ATOM     32  O   UNL     1     102.204   1.530  25.436  0.00  0.00    +0.000 OA
ATOM     33  H   UNL     1     102.069   2.093  24.654  0.00  0.00    +0.000 HD
ENDBRANCH  27  32
BRANCH  28  34
ATOM     34  O   UNL     1     100.179  -0.431  26.082  0.00  0.00    +0.000 OA
ATOM     35  H   UNL     1      99.270  -0.604  26.375  0.00  0.00    +0.000 HD
ENDBRANCH  28  34
BRANCH  29  36
ATOM     36  O   UNL     1     101.598   4.105  26.735  0.00  0.00    +0.000 OA
ATOM     37  H   UNL     1     101.238   3.999  25.838  0.00  0.00    +0.000 HD
ENDBRANCH  29  36
BRANCH  30  38
ATOM     38  C   UNL     1      99.552  -0.617  28.966  0.00  0.00    +0.000 C 
BRANCH  38  39
ATOM     39  O   UNL     1      98.785  -1.480  28.146  0.00  0.00    +0.000 OA
ATOM     40  H   UNL     1      99.379  -1.849  27.469  0.00  0.00    +0.000 HD
ENDBRANCH  38  39
ENDBRANCH  30  38
ENDBRANCH  25  31
ENDBRANCH   2  25
TORSDOF 12
