REMARK VINA RESULT:      -5.1     13.356     16.731
REMARK  Name = 441667
REMARK  12 active torsions:
REMARK  status: ('A' for Active; 'I' for Inactive)
REMARK    1  A    between atoms: O_2  and  C_16
REMARK    2  A    between atoms: O_2  and  C_18
REMARK    3  A    between atoms: O_3  and  C_12
REMARK    4  A    between atoms: O_4  and  C_13
REMARK    5  A    between atoms: O_5  and  C_14
REMARK    6  A    between atoms: O_6  and  C_17
REMARK    7  A    between atoms: O_8  and  C_24
REMARK    8  A    between atoms: O_9  and  C_29
REMARK    9  A    between atoms: O_10  and  C_30
REMARK   10  A    between atoms: O_11  and  C_32
REMARK   11  A    between atoms: C_15  and  C_17
REMARK   12  A    between atoms: C_19  and  C_23
REMARK                            x       y       z     vdW  Elec       q    Type
REMARK                         _______ _______ _______ _____ _____    ______ ____
ROOT
ATOM      1  O   UNL     1      90.746  -3.091  21.735  0.00  0.00    +0.000 OA
ATOM      2  C   UNL     1      88.309  -3.326  21.358  0.00  0.00    +0.000 A 
ATOM      3  C   UNL     1      89.533  -3.178  22.207  0.00  0.00    +0.000 A 
ATOM      4  C   UNL     1      88.502  -3.419  20.036  0.00  0.00    +0.000 A 
ATOM      5  C   UNL     1      89.848  -3.364  19.475  0.00  0.00    +0.000 A 
ATOM      6  C   UNL     1      90.929  -3.189  20.343  0.00  0.00    +0.000 A 
ATOM      7  C   UNL     1      90.075  -3.466  18.099  0.00  0.00    +0.000 A 
ATOM      8  C   UNL     1      92.230  -3.116  19.842  0.00  0.00    +0.000 A 
ATOM      9  C   UNL     1      91.376  -3.394  17.599  0.00  0.00    +0.000 A 
ATOM     10  C   UNL     1      92.452  -3.218  18.469  0.00  0.00    +0.000 A 
ENDROOT
BRANCH   3  11
ATOM     11  C   UNL     1      89.342  -3.099  23.674  0.00  0.00    +0.000 A 
ATOM     12  C   UNL     1      89.448  -1.870  24.316  0.00  0.00    +0.000 A 
ATOM     13  C   UNL     1      89.059  -4.255  24.394  0.00  0.00    +0.000 A 
ATOM     14  C   UNL     1      89.267  -1.797  25.698  0.00  0.00    +0.000 A 
ATOM     15  C   UNL     1      88.879  -4.180  25.775  0.00  0.00    +0.000 A 
ATOM     16  C   UNL     1      88.983  -2.952  26.427  0.00  0.00    +0.000 A 
BRANCH  14  17
ATOM     17  O   UNL     1      89.371  -0.591  26.323  0.00  0.00    +0.000 OA
ATOM     18  H   UNL     1      88.560  -0.083  26.143  0.00  0.00    +0.000 HD
ENDBRANCH  14  17
BRANCH  16  19
ATOM     19  O   UNL     1      88.806  -2.892  27.777  0.00  0.00    +0.000 OA
ATOM     20  H   UNL     1      89.368  -2.187  28.139  0.00  0.00    +0.000 HD
ENDBRANCH  16  19
ENDBRANCH   3  11
BRANCH   7  21
ATOM     21  O   UNL     1      89.049  -3.634  17.216  0.00  0.00    +0.000 OA
ATOM     22  H   UNL     1      88.210  -3.352  17.613  0.00  0.00    +0.000 HD
ENDBRANCH   7  21
BRANCH  10  23
ATOM     23  O   UNL     1      93.719  -3.147  17.978  0.00  0.00    +0.000 OA
ATOM     24  H   UNL     1      93.893  -2.236  17.685  0.00  0.00    +0.000 HD
ENDBRANCH  10  23
BRANCH   2  25
ATOM     25  O   UNL     1      87.058  -3.310  21.932  0.00  0.00    +0.000 OA
BRANCH  25  31
ATOM     26  O   UNL     1      86.791  -1.018  22.280  0.00  0.00    +0.000 OA
ATOM     27  C   UNL     1      84.000  -1.156  21.616  0.00  0.00    +0.000 C 
ATOM     28  C   UNL     1      84.624   0.070  22.283  0.00  0.00    +0.000 C 
ATOM     29  C   UNL     1      84.846  -2.407  21.856  0.00  0.00    +0.000 C 
ATOM     30  C   UNL     1      86.108   0.186  21.925  0.00  0.00    +0.000 C 
ATOM     31  C   UNL     1      86.320  -2.149  21.550  0.00  0.00    +0.000 C 
BRANCH  27  32
ATOM     32  O   UNL     1      82.698  -1.347  22.173  0.00  0.00    +0.000 OA
ATOM     33  H   UNL     1      82.796  -1.478  23.132  0.00  0.00    +0.000 HD
ENDBRANCH  27  32
BRANCH  28  34
ATOM     34  O   UNL     1      83.942   1.243  21.848  0.00  0.00    +0.000 OA
ATOM     35  H   UNL     1      83.307   0.981  21.161  0.00  0.00    +0.000 HD
ENDBRANCH  28  34
BRANCH  29  36
ATOM     36  O   UNL     1      84.390  -3.458  21.002  0.00  0.00    +0.000 OA
ATOM     37  H   UNL     1      85.114  -4.101  20.920  0.00  0.00    +0.000 HD
ENDBRANCH  29  36
BRANCH  30  38
ATOM     38  C   UNL     1      86.781   1.334  22.671  0.00  0.00    +0.000 C 
BRANCH  38  39
ATOM     39  O   UNL     1      86.566   2.530  21.945  0.00  0.00    +0.000 OA
ATOM     40  H   UNL     1      87.222   2.562  21.228  0.00  0.00    +0.000 HD
ENDBRANCH  38  39
ENDBRANCH  30  38
ENDBRANCH  25  31
ENDBRANCH   2  25
TORSDOF 12
