REMARK VINA RESULT:      -7.0      3.432      5.204
REMARK  Name = 5280443
REMARK  4 active torsions:
REMARK  status: ('A' for Active; 'I' for Inactive)
REMARK    1  A    between atoms: O_2  and  C_12
REMARK    2  A    between atoms: O_4  and  C_14
REMARK    3  A    between atoms: O_5  and  C_20
REMARK    4  A    between atoms: C_8  and  C_9
REMARK                            x       y       z     vdW  Elec       q    Type
REMARK                         _______ _______ _______ _____ _____    ______ ____
ROOT
ATOM      1  O   UNL     1      93.064   0.158  28.178  0.00  0.00    +0.000 OA
ATOM      2  O   UNL     1      90.458  -2.263  26.193  0.00  0.00    +0.000 OA
ATOM      3  C   UNL     1      90.806  -0.251  27.381  0.00  0.00    +0.000 A 
ATOM      4  C   UNL     1      91.750   0.529  28.046  0.00  0.00    +0.000 A 
ATOM      5  C   UNL     1      93.466  -1.052  27.632  0.00  0.00    +0.000 A 
ATOM      6  C   UNL     1      91.231  -1.530  26.791  0.00  0.00    +0.000 A 
ATOM      7  C   UNL     1      92.654  -1.886  26.963  0.00  0.00    +0.000 A 
ATOM      8  C   UNL     1      89.482   0.179  27.277  0.00  0.00    +0.000 A 
ATOM      9  C   UNL     1      91.374   1.747  28.612  0.00  0.00    +0.000 A 
ATOM     10  C   UNL     1      90.051   2.180  28.511  0.00  0.00    +0.000 A 
ATOM     11  C   UNL     1      89.107   1.397  27.845  0.00  0.00    +0.000 A 
ENDROOT
BRANCH   5  12
ATOM     12  C   UNL     1      94.899  -1.351  27.826  0.00  0.00    +0.000 A 
ATOM     13  C   UNL     1      95.630  -0.673  28.806  0.00  0.00    +0.000 A 
ATOM     14  C   UNL     1      95.529  -2.312  27.033  0.00  0.00    +0.000 A 
ATOM     15  C   UNL     1      96.984  -0.956  28.990  0.00  0.00    +0.000 A 
ATOM     16  C   UNL     1      96.883  -2.595  27.218  0.00  0.00    +0.000 A 
ATOM     17  C   UNL     1      97.610  -1.916  28.196  0.00  0.00    +0.000 A 
BRANCH  17  18
ATOM     18  O   UNL     1      98.930  -2.193  28.376  0.00  0.00    +0.000 OA
ATOM     19  H   UNL     1      99.268  -1.650  29.109  0.00  0.00    +0.000 HD
ENDBRANCH  17  18
ENDBRANCH   5  12
BRANCH   8  20
ATOM     20  O   UNL     1      88.522  -0.547  26.637  0.00  0.00    +0.000 OA
ATOM     21  H   UNL     1      87.691  -0.049  26.595  0.00  0.00    +0.000 HD
ENDBRANCH   8  20
BRANCH  10  22
ATOM     22  O   UNL     1      89.681   3.369  29.062  0.00  0.00    +0.000 OA
ATOM     23  H   UNL     1      89.008   3.204  29.745  0.00  0.00    +0.000 HD
ENDBRANCH  10  22
TORSDOF 4
