REMARK VINA RESULT:      -7.0      2.540      7.156
REMARK  Name = 5280443
REMARK  4 active torsions:
REMARK  status: ('A' for Active; 'I' for Inactive)
REMARK    1  A    between atoms: O_2  and  C_12
REMARK    2  A    between atoms: O_4  and  C_14
REMARK    3  A    between atoms: O_5  and  C_20
REMARK    4  A    between atoms: C_8  and  C_9
REMARK                            x       y       z     vdW  Elec       q    Type
REMARK                         _______ _______ _______ _____ _____    ______ ____
ROOT
ATOM      1  O   UNL     1      92.995   2.345  26.589  0.00  0.00    +0.000 OA
ATOM      2  O   UNL     1      91.377   4.677  29.511  0.00  0.00    +0.000 OA
ATOM      3  C   UNL     1      93.000   4.444  27.810  0.00  0.00    +0.000 A 
ATOM      4  C   UNL     1      93.505   3.596  26.826  0.00  0.00    +0.000 A 
ATOM      5  C   UNL     1      91.936   1.904  27.369  0.00  0.00    +0.000 A 
ATOM      6  C   UNL     1      91.871   3.985  28.633  0.00  0.00    +0.000 A 
ATOM      7  C   UNL     1      91.360   2.630  28.340  0.00  0.00    +0.000 A 
ATOM      8  C   UNL     1      93.559   5.709  28.006  0.00  0.00    +0.000 A 
ATOM      9  C   UNL     1      94.574   4.009  26.031  0.00  0.00    +0.000 A 
ATOM     10  C   UNL     1      95.135   5.271  26.223  0.00  0.00    +0.000 A 
ATOM     11  C   UNL     1      94.629   6.120  27.210  0.00  0.00    +0.000 A 
ENDROOT
BRANCH   5  12
ATOM     12  C   UNL     1      91.463   0.549  27.027  0.00  0.00    +0.000 A 
ATOM     13  C   UNL     1      90.103   0.237  27.118  0.00  0.00    +0.000 A 
ATOM     14  C   UNL     1      92.370  -0.428  26.609  0.00  0.00    +0.000 A 
ATOM     15  C   UNL     1      89.655  -1.044  26.793  0.00  0.00    +0.000 A 
ATOM     16  C   UNL     1      91.921  -1.708  26.284  0.00  0.00    +0.000 A 
ATOM     17  C   UNL     1      90.564  -2.017  26.377  0.00  0.00    +0.000 A 
BRANCH  17  18
ATOM     18  O   UNL     1      90.127  -3.265  26.060  0.00  0.00    +0.000 OA
ATOM     19  H   UNL     1      90.870  -3.774  25.691  0.00  0.00    +0.000 HD
ENDBRANCH  17  18
ENDBRANCH   5  12
BRANCH   8  20
ATOM     20  O   UNL     1      93.101   6.575  28.953  0.00  0.00    +0.000 OA
ATOM     21  H   UNL     1      93.506   6.382  29.813  0.00  0.00    +0.000 HD
ENDBRANCH   8  20
BRANCH  10  22
ATOM     22  O   UNL     1      96.178   5.677  25.448  0.00  0.00    +0.000 OA
ATOM     23  H   UNL     1      95.951   5.536  24.513  0.00  0.00    +0.000 HD
ENDBRANCH  10  22
TORSDOF 4
