REMARK VINA RESULT:      -6.9      2.138      7.128
REMARK  Name = 5280443
REMARK  4 active torsions:
REMARK  status: ('A' for Active; 'I' for Inactive)
REMARK    1  A    between atoms: O_2  and  C_12
REMARK    2  A    between atoms: O_4  and  C_14
REMARK    3  A    between atoms: O_5  and  C_20
REMARK    4  A    between atoms: C_8  and  C_9
REMARK                            x       y       z     vdW  Elec       q    Type
REMARK                         _______ _______ _______ _____ _____    ______ ____
ROOT
ATOM      1  O   UNL     1      92.564   2.597  27.377  0.00  0.00    +0.000 OA
ATOM      2  O   UNL     1      95.006   3.940  24.406  0.00  0.00    +0.000 OA
ATOM      3  C   UNL     1      94.008   4.347  26.509  0.00  0.00    +0.000 A 
ATOM      4  C   UNL     1      93.163   3.827  27.487  0.00  0.00    +0.000 A 
ATOM      5  C   UNL     1      92.805   1.845  26.237  0.00  0.00    +0.000 A 
ATOM      6  C   UNL     1      94.274   3.548  25.302  0.00  0.00    +0.000 A 
ATOM      7  C   UNL     1      93.603   2.233  25.230  0.00  0.00    +0.000 A 
ATOM      8  C   UNL     1      94.592   5.604  26.675  0.00  0.00    +0.000 A 
ATOM      9  C   UNL     1      92.897   4.563  28.641  0.00  0.00    +0.000 A 
ATOM     10  C   UNL     1      93.477   5.820  28.812  0.00  0.00    +0.000 A 
ATOM     11  C   UNL     1      94.323   6.340  27.830  0.00  0.00    +0.000 A 
ENDROOT
BRANCH   5  12
ATOM     12  C   UNL     1      92.116   0.540  26.224  0.00  0.00    +0.000 A 
ATOM     13  C   UNL     1      90.740   0.475  25.989  0.00  0.00    +0.000 A 
ATOM     14  C   UNL     1      92.836  -0.636  26.445  0.00  0.00    +0.000 A 
ATOM     15  C   UNL     1      90.089  -0.759  25.975  0.00  0.00    +0.000 A 
ATOM     16  C   UNL     1      92.185  -1.870  26.432  0.00  0.00    +0.000 A 
ATOM     17  C   UNL     1      90.812  -1.932  26.198  0.00  0.00    +0.000 A 
BRANCH  17  18
ATOM     18  O   UNL     1      90.177  -3.135  26.184  0.00  0.00    +0.000 OA
ATOM     19  H   UNL     1      89.640  -3.217  26.991  0.00  0.00    +0.000 HD
ENDBRANCH  17  18
ENDBRANCH   5  12
BRANCH   8  20
ATOM     20  O   UNL     1      95.424   6.156  25.749  0.00  0.00    +0.000 OA
ATOM     21  H   UNL     1      95.914   6.900  26.132  0.00  0.00    +0.000 HD
ENDBRANCH   8  20
BRANCH  10  22
ATOM     22  O   UNL     1      93.219   6.542  29.937  0.00  0.00    +0.000 OA
ATOM     23  H   UNL     1      92.580   7.244  29.723  0.00  0.00    +0.000 HD
ENDBRANCH  10  22
TORSDOF 4
