REMARK VINA RESULT:      -6.2      3.124      3.550
REMARK  Name = 168679856
REMARK  8 active torsions:
REMARK  status: ('A' for Active; 'I' for Inactive)
REMARK    1  A    between atoms: O_4  and  C_23
REMARK    2  A    between atoms: O_4  and  C_28
REMARK    3  A    between atoms: O_5  and  C_24
REMARK    4  A    between atoms: O_5  and  C_29
REMARK    5  A    between atoms: N_10  and  C_19
REMARK    6  A    between atoms: C_14  and  C_18
REMARK    7  A    between atoms: C_16  and  C_20
REMARK    8  A    between atoms: C_23  and  C_24
REMARK                            x       y       z     vdW  Elec       q    Type
REMARK                         _______ _______ _______ _____ _____    ______ ____
ROOT
ATOM      1  N   UNL     1      92.284   3.582  28.795  0.00  0.00    +0.000 N 
ATOM      2  N   UNL     1      93.574   1.799  28.040  0.00  0.00    +0.000 NA
ATOM      3  N   UNL     1      93.468   3.872  26.814  0.00  0.00    +0.000 NA
ATOM      4  N   UNL     1      90.955   5.029  29.832  0.00  0.00    +0.000 NA
ATOM      5  C   UNL     1      94.410   1.326  27.093  0.00  0.00    +0.000 A 
ATOM      6  C   UNL     1      93.148   3.061  27.840  0.00  0.00    +0.000 A 
ATOM      7  C   UNL     1      94.308   3.334  25.905  0.00  0.00    +0.000 A 
ATOM      8  C   UNL     1      94.816   2.054  25.994  0.00  0.00    +0.000 A 
ATOM      9  C   UNL     1      91.828   2.939  29.912  0.00  0.00    +0.000 A 
ATOM     10  C   UNL     1      91.733   4.833  28.790  0.00  0.00    +0.000 A 
ATOM     11  C   UNL     1      91.011   3.851  30.535  0.00  0.00    +0.000 A 
ENDROOT
BRANCH   7  15
ATOM     12  F   UNL     1      93.701   5.058  24.365  0.00  0.00    +0.000 F 
ATOM     13  F   UNL     1      95.773   4.983  25.019  0.00  0.00    +0.000 F 
ATOM     14  F   UNL     1      95.015   3.499  23.624  0.00  0.00    +0.000 F 
ATOM     15  C   UNL     1      94.690   4.199  24.750  0.00  0.00    +0.000 C 
ENDBRANCH   7  15
BRANCH   5  18
ATOM     16  O   UNL     1      94.084  -0.901  27.683  0.00  0.00    +0.000 OA
ATOM     17  N   UNL     1      96.246  -0.288  26.988  0.00  0.00    +0.000 N 
ATOM     18  C   UNL     1      94.893  -0.066  27.294  0.00  0.00    +0.000 C 
ATOM     19  H   UNL     1      96.779   0.519  26.672  0.00  0.00    +0.000 HD
BRANCH  17  22
ATOM     20  N   UNL     1      98.015  -3.341  25.955  0.00  0.00    +0.000 NA
ATOM     21  N   UNL     1      98.035  -3.192  28.360  0.00  0.00    +0.000 NA
ATOM     22  C   UNL     1      96.958  -1.480  27.056  0.00  0.00    +0.000 A 
ATOM     23  C   UNL     1      97.324  -2.182  25.926  0.00  0.00    +0.000 A 
ATOM     24  C   UNL     1      97.344  -2.038  28.257  0.00  0.00    +0.000 A 
ATOM     25  C   UNL     1      98.334  -3.782  27.187  0.00  0.00    +0.000 A 
BRANCH  25  26
ATOM     26  O   UNL     1      99.039  -4.961  27.255  0.00  0.00    +0.000 OA
BRANCH  26  27
ATOM     27  C   UNL     1     100.264  -5.009  26.536  0.00  0.00    +0.000 C 
BRANCH  27  28
ATOM     28  C   UNL     1     101.324  -4.255  27.315  0.00  0.00    +0.000 C 
BRANCH  28  29
ATOM     29  O   UNL     1     102.146  -3.535  26.404  0.00  0.00    +0.000 OA
ATOM     30  C   UNL     1     101.526  -3.409  25.132  0.00  0.00    +0.000 C 
ENDBRANCH  28  29
ENDBRANCH  27  28
ENDBRANCH  26  27
ENDBRANCH  25  26
ENDBRANCH  17  22
ENDBRANCH   5  18
TORSDOF 7
