REMARK VINA RESULT:      -6.4      3.643      9.082
REMARK  Name = 155598690
REMARK  7 active torsions:
REMARK  status: ('A' for Active; 'I' for Inactive)
REMARK    1  A    between atoms: O_1  and  C_11
REMARK    2  A    between atoms: O_1  and  C_16
REMARK    3  A    between atoms: O_3  and  C_19
REMARK    4  A    between atoms: O_3  and  C_25
REMARK    5  A    between atoms: N_4  and  C_10
REMARK    6  A    between atoms: C_16  and  C_19
REMARK    7  A    between atoms: C_17  and  C_18
REMARK                            x       y       z     vdW  Elec       q    Type
REMARK                         _______ _______ _______ _____ _____    ______ ____
ROOT
ATOM      1  O   UNL     1      92.785   1.481  30.135  0.00  0.00    +0.000 OA
ATOM      2  N   UNL     1      92.035   2.511  28.198  0.00  0.00    +0.000 N 
ATOM      3  C   UNL     1      92.604   1.473  28.921  0.00  0.00    +0.000 C 
ATOM      4  H   UNL     1      91.976   2.433  27.186  0.00  0.00    +0.000 HD
ENDROOT
BRANCH   3  10
ATOM      5  N   UNL     1      94.355   0.026  28.058  0.00  0.00    +0.000 NA
ATOM      6  N   UNL     1      90.792  -0.555  27.344  0.00  0.00    +0.000 N 
ATOM      7  N   UNL     1      93.963  -1.926  26.658  0.00  0.00    +0.000 NA
ATOM      8  N   UNL     1      96.103  -1.292  27.285  0.00  0.00    +0.000 N 
ATOM      9  N   UNL     1      98.026  -2.271  26.763  0.00  0.00    +0.000 NA
ATOM     10  C   UNL     1      93.033   0.291  28.130  0.00  0.00    +0.000 A 
ATOM     11  C   UNL     1      92.158  -0.549  27.466  0.00  0.00    +0.000 A 
ATOM     12  C   UNL     1      92.641  -1.638  26.746  0.00  0.00    +0.000 A 
ATOM     13  C   UNL     1      94.734  -1.052  27.336  0.00  0.00    +0.000 A 
ATOM     14  C   UNL     1      91.527  -2.307  26.182  0.00  0.00    +0.000 A 
ATOM     15  C   UNL     1      90.399  -1.616  26.567  0.00  0.00    +0.000 A 
ATOM     16  C   UNL     1      97.077  -0.549  27.890  0.00  0.00    +0.000 A 
ATOM     17  C   UNL     1      96.720  -2.315  26.622  0.00  0.00    +0.000 A 
ATOM     18  C   UNL     1      98.255  -1.173  27.553  0.00  0.00    +0.000 A 
ATOM     19  H   UNL     1      90.165   0.120  27.762  0.00  0.00    +0.000 HD
ENDBRANCH   3  10
BRANCH   2  20
ATOM     20  C   UNL     1      91.592   3.736  28.819  0.00  0.00    +0.000 C 
ATOM     21  C   UNL     1      90.425   6.445  28.689  0.00  0.00    +0.000 C 
ATOM     22  C   UNL     1      92.406   4.925  28.301  0.00  0.00    +0.000 C 
ATOM     23  C   UNL     1      90.091   3.942  28.596  0.00  0.00    +0.000 C 
ATOM     24  C   UNL     1      91.922   6.238  28.910  0.00  0.00    +0.000 C 
ATOM     25  C   UNL     1      89.615   5.258  29.205  0.00  0.00    +0.000 C 
BRANCH  21  26
ATOM     26  O   UNL     1      89.998   7.619  29.372  0.00  0.00    +0.000 OA
BRANCH  26  27
ATOM     27  C   UNL     1      88.927   7.344  30.262  0.00  0.00    +0.000 C 
BRANCH  27  28
ATOM     28  C   UNL     1      89.311   7.800  31.656  0.00  0.00    +0.000 C 
BRANCH  28  29
ATOM     29  O   UNL     1      89.575   6.657  32.461  0.00  0.00    +0.000 OA
ATOM     30  C   UNL     1      89.971   7.027  33.775  0.00  0.00    +0.000 C 
ENDBRANCH  28  29
ENDBRANCH  27  28
ENDBRANCH  26  27
ENDBRANCH  21  26
ENDBRANCH   2  20
TORSDOF 6
