REMARK VINA RESULT:      -7.9      1.892      5.975
REMARK  Name = 441667
REMARK  12 active torsions:
REMARK  status: ('A' for Active; 'I' for Inactive)
REMARK    1  A    between atoms: O_2  and  C_16
REMARK    2  A    between atoms: O_2  and  C_18
REMARK    3  A    between atoms: O_3  and  C_12
REMARK    4  A    between atoms: O_4  and  C_13
REMARK    5  A    between atoms: O_5  and  C_14
REMARK    6  A    between atoms: O_6  and  C_17
REMARK    7  A    between atoms: O_8  and  C_24
REMARK    8  A    between atoms: O_9  and  C_29
REMARK    9  A    between atoms: O_10  and  C_30
REMARK   10  A    between atoms: O_11  and  C_32
REMARK   11  A    between atoms: C_15  and  C_17
REMARK   12  A    between atoms: C_19  and  C_23
REMARK                            x       y       z     vdW  Elec       q    Type
REMARK                         _______ _______ _______ _____ _____    ______ ____
ROOT
ATOM      1  O   UNL     1      92.051   1.488  26.449  0.00  0.00    +0.000 OA
ATOM      2  C   UNL     1      94.165   0.213  26.651  0.00  0.00    +0.000 A 
ATOM      3  C   UNL     1      93.354   1.458  26.468  0.00  0.00    +0.000 A 
ATOM      4  C   UNL     1      93.485  -0.937  26.754  0.00  0.00    +0.000 A 
ATOM      5  C   UNL     1      92.027  -0.946  26.699  0.00  0.00    +0.000 A 
ATOM      6  C   UNL     1      91.353   0.271  26.560  0.00  0.00    +0.000 A 
ATOM      7  C   UNL     1      91.296  -2.134  26.798  0.00  0.00    +0.000 A 
ATOM      8  C   UNL     1      89.959   0.303  26.520  0.00  0.00    +0.000 A 
ATOM      9  C   UNL     1      89.901  -2.101  26.756  0.00  0.00    +0.000 A 
ATOM     10  C   UNL     1      89.233  -0.884  26.618  0.00  0.00    +0.000 A 
ENDROOT
BRANCH   3  11
ATOM     11  C   UNL     1      94.089   2.737  26.326  0.00  0.00    +0.000 A 
ATOM     12  C   UNL     1      94.618   3.355  27.453  0.00  0.00    +0.000 A 
ATOM     13  C   UNL     1      94.243   3.306  25.067  0.00  0.00    +0.000 A 
ATOM     14  C   UNL     1      95.311   4.559  27.319  0.00  0.00    +0.000 A 
ATOM     15  C   UNL     1      94.935   4.510  24.934  0.00  0.00    +0.000 A 
ATOM     16  C   UNL     1      95.469   5.136  26.059  0.00  0.00    +0.000 A 
BRANCH  14  17
ATOM     17  O   UNL     1      95.827   5.160  28.426  0.00  0.00    +0.000 OA
ATOM     18  H   UNL     1      95.122   5.684  28.847  0.00  0.00    +0.000 HD
ENDBRANCH  14  17
BRANCH  16  19
ATOM     19  O   UNL     1      96.141   6.312  25.916  0.00  0.00    +0.000 OA
ATOM     20  H   UNL     1      96.883   6.332  26.545  0.00  0.00    +0.000 HD
ENDBRANCH  16  19
ENDBRANCH   3  11
BRANCH   7  21
ATOM     21  O   UNL     1      91.911  -3.343  26.938  0.00  0.00    +0.000 OA
ATOM     22  H   UNL     1      91.389  -3.924  27.513  0.00  0.00    +0.000 HD
ENDBRANCH   7  21
BRANCH  10  23
ATOM     23  O   UNL     1      87.873  -0.855  26.579  0.00  0.00    +0.000 OA
ATOM     24  H   UNL     1      87.590  -0.510  25.714  0.00  0.00    +0.000 HD
ENDBRANCH  10  23
BRANCH   2  25
ATOM     25  O   UNL     1      95.535   0.283  26.759  0.00  0.00    +0.000 OA
BRANCH  25  31
ATOM     26  O   UNL     1      95.799  -1.040  28.662  0.00  0.00    +0.000 OA
ATOM     27  C   UNL     1      98.284  -2.099  27.685  0.00  0.00    +0.000 C 
ATOM     28  C   UNL     1      97.830  -2.278  29.134  0.00  0.00    +0.000 C 
ATOM     29  C   UNL     1      97.594  -0.900  27.033  0.00  0.00    +0.000 C 
ATOM     30  C   UNL     1      96.303  -2.250  29.231  0.00  0.00    +0.000 C 
ATOM     31  C   UNL     1      96.085  -0.931  27.269  0.00  0.00    +0.000 C 
BRANCH  27  32
ATOM     32  O   UNL     1      99.698  -1.891  27.687  0.00  0.00    +0.000 OA
ATOM     33  H   UNL     1      99.883  -1.077  28.189  0.00  0.00    +0.000 HD
ENDBRANCH  27  32
BRANCH  28  34
ATOM     34  O   UNL     1      98.311  -3.525  29.629  0.00  0.00    +0.000 OA
ATOM     35  H   UNL     1      99.206  -3.660  29.275  0.00  0.00    +0.000 HD
ENDBRANCH  28  34
BRANCH  29  36
ATOM     36  O   UNL     1      97.826  -0.929  25.624  0.00  0.00    +0.000 OA
ATOM     37  H   UNL     1      98.607  -1.487  25.469  0.00  0.00    +0.000 HD
ENDBRANCH  29  36
BRANCH  30  38
ATOM     38  C   UNL     1      95.828  -2.310  30.680  0.00  0.00    +0.000 C 
BRANCH  38  39
ATOM     39  O   UNL     1      94.913  -1.252  30.898  0.00  0.00    +0.000 OA
ATOM     40  H   UNL     1      94.018  -1.598  30.736  0.00  0.00    +0.000 HD
ENDBRANCH  38  39
ENDBRANCH  30  38
ENDBRANCH  25  31
ENDBRANCH   2  25
TORSDOF 12
