REMARK VINA RESULT:      -7.2      1.592      5.586
REMARK  Name = 441667
REMARK  12 active torsions:
REMARK  status: ('A' for Active; 'I' for Inactive)
REMARK    1  A    between atoms: O_2  and  C_16
REMARK    2  A    between atoms: O_2  and  C_18
REMARK    3  A    between atoms: O_3  and  C_12
REMARK    4  A    between atoms: O_4  and  C_13
REMARK    5  A    between atoms: O_5  and  C_14
REMARK    6  A    between atoms: O_6  and  C_17
REMARK    7  A    between atoms: O_8  and  C_24
REMARK    8  A    between atoms: O_9  and  C_29
REMARK    9  A    between atoms: O_10  and  C_30
REMARK   10  A    between atoms: O_11  and  C_32
REMARK   11  A    between atoms: C_15  and  C_17
REMARK   12  A    between atoms: C_19  and  C_23
REMARK                            x       y       z     vdW  Elec       q    Type
REMARK                         _______ _______ _______ _____ _____    ______ ____
ROOT
ATOM      1  O   UNL     1      94.789  -1.998  27.267  0.00  0.00    +0.000 OA
ATOM      2  C   UNL     1      94.958   0.430  27.727  0.00  0.00    +0.000 A 
ATOM      3  C   UNL     1      94.229  -0.823  27.354  0.00  0.00    +0.000 A 
ATOM      4  C   UNL     1      96.277   0.319  27.933  0.00  0.00    +0.000 A 
ATOM      5  C   UNL     1      96.944  -0.972  27.808  0.00  0.00    +0.000 A 
ATOM      6  C   UNL     1      96.175  -2.095  27.490  0.00  0.00    +0.000 A 
ATOM      7  C   UNL     1      98.320  -1.111  28.013  0.00  0.00    +0.000 A 
ATOM      8  C   UNL     1      96.776  -3.350  27.376  0.00  0.00    +0.000 A 
ATOM      9  C   UNL     1      98.919  -2.366  27.898  0.00  0.00    +0.000 A 
ATOM     10  C   UNL     1      98.148  -3.484  27.581  0.00  0.00    +0.000 A 
ENDROOT
BRANCH   3  11
ATOM     11  C   UNL     1      92.774  -0.717  27.096  0.00  0.00    +0.000 A 
ATOM     12  C   UNL     1      91.984   0.073  27.923  0.00  0.00    +0.000 A 
ATOM     13  C   UNL     1      92.213  -1.409  26.028  0.00  0.00    +0.000 A 
ATOM     14  C   UNL     1      90.614   0.173  27.679  0.00  0.00    +0.000 A 
ATOM     15  C   UNL     1      90.843  -1.308  25.785  0.00  0.00    +0.000 A 
ATOM     16  C   UNL     1      90.044  -0.517  26.610  0.00  0.00    +0.000 A 
BRANCH  14  17
ATOM     17  O   UNL     1      89.845   0.949  28.492  0.00  0.00    +0.000 OA
ATOM     18  H   UNL     1      88.910   0.786  28.275  0.00  0.00    +0.000 HD
ENDBRANCH  14  17
BRANCH  16  19
ATOM     19  O   UNL     1      88.707  -0.429  26.362  0.00  0.00    +0.000 OA
ATOM     20  H   UNL     1      88.232  -1.017  26.973  0.00  0.00    +0.000 HD
ENDBRANCH  16  19
ENDBRANCH   3  11
BRANCH   7  21
ATOM     21  O   UNL     1      99.107  -0.043  28.328  0.00  0.00    +0.000 OA
ATOM     22  H   UNL     1      99.963  -0.343  28.673  0.00  0.00    +0.000 HD
ENDBRANCH   7  21
BRANCH  10  23
ATOM     23  O   UNL     1      98.736  -4.707  27.471  0.00  0.00    +0.000 OA
ATOM     24  H   UNL     1      98.096  -5.331  27.088  0.00  0.00    +0.000 HD
ENDBRANCH  10  23
BRANCH   2  25
ATOM     25  O   UNL     1      94.271   1.611  27.893  0.00  0.00    +0.000 OA
BRANCH  25  31
ATOM     26  O   UNL     1      94.923   3.833  28.180  0.00  0.00    +0.000 OA
ATOM     27  C   UNL     1      94.870   4.304  25.347  0.00  0.00    +0.000 C 
ATOM     28  C   UNL     1      94.956   5.441  26.365  0.00  0.00    +0.000 C 
ATOM     29  C   UNL     1      94.282   3.040  25.976  0.00  0.00    +0.000 C 
ATOM     30  C   UNL     1      95.624   4.963  27.657  0.00  0.00    +0.000 C 
ATOM     31  C   UNL     1      94.965   2.710  27.302  0.00  0.00    +0.000 C 
BRANCH  27  32
ATOM     32  O   UNL     1      94.032   4.735  24.273  0.00  0.00    +0.000 OA
ATOM     33  H   UNL     1      94.066   4.060  23.573  0.00  0.00    +0.000 HD
ENDBRANCH  27  32
BRANCH  28  34
ATOM     34  O   UNL     1      95.713   6.514  25.812  0.00  0.00    +0.000 OA
ATOM     35  H   UNL     1      95.771   7.214  26.483  0.00  0.00    +0.000 HD
ENDBRANCH  28  34
BRANCH  29  36
ATOM     36  O   UNL     1      94.471   1.938  25.089  0.00  0.00    +0.000 OA
ATOM     37  H   UNL     1      93.748   1.307  25.250  0.00  0.00    +0.000 HD
ENDBRANCH  29  36
BRANCH  30  38
ATOM     38  C   UNL     1      95.616   6.047  28.731  0.00  0.00    +0.000 C 
BRANCH  38  39
ATOM     39  O   UNL     1      96.713   6.913  28.505  0.00  0.00    +0.000 OA
ATOM     40  H   UNL     1      97.493   6.520  28.935  0.00  0.00    +0.000 HD
ENDBRANCH  38  39
ENDBRANCH  30  38
ENDBRANCH  25  31
ENDBRANCH   2  25
TORSDOF 12
