REMARK VINA RESULT:      -8.1      0.000      0.000
REMARK  Name = 441667
REMARK  12 active torsions:
REMARK  status: ('A' for Active; 'I' for Inactive)
REMARK    1  A    between atoms: O_2  and  C_16
REMARK    2  A    between atoms: O_2  and  C_18
REMARK    3  A    between atoms: O_3  and  C_12
REMARK    4  A    between atoms: O_4  and  C_13
REMARK    5  A    between atoms: O_5  and  C_14
REMARK    6  A    between atoms: O_6  and  C_17
REMARK    7  A    between atoms: O_8  and  C_24
REMARK    8  A    between atoms: O_9  and  C_29
REMARK    9  A    between atoms: O_10  and  C_30
REMARK   10  A    between atoms: O_11  and  C_32
REMARK   11  A    between atoms: C_15  and  C_17
REMARK   12  A    between atoms: C_19  and  C_23
REMARK                            x       y       z     vdW  Elec       q    Type
REMARK                         _______ _______ _______ _____ _____    ______ ____
ROOT
ATOM      1  O   UNL     1      96.314   0.172  26.268  0.00  0.00    +0.000 OA
ATOM      2  C   UNL     1      94.712   0.349  28.149  0.00  0.00    +0.000 A 
ATOM      3  C   UNL     1      95.476   0.877  26.975  0.00  0.00    +0.000 A 
ATOM      4  C   UNL     1      94.958  -0.918  28.504  0.00  0.00    +0.000 A 
ATOM      5  C   UNL     1      95.918  -1.727  27.761  0.00  0.00    +0.000 A 
ATOM      6  C   UNL     1      96.559  -1.159  26.656  0.00  0.00    +0.000 A 
ATOM      7  C   UNL     1      96.195  -3.050  28.117  0.00  0.00    +0.000 A 
ATOM      8  C   UNL     1      97.472  -1.907  25.911  0.00  0.00    +0.000 A 
ATOM      9  C   UNL     1      97.109  -3.797  27.371  0.00  0.00    +0.000 A 
ATOM     10  C   UNL     1      97.746  -3.227  26.269  0.00  0.00    +0.000 A 
ENDROOT
BRANCH   3  11
ATOM     11  C   UNL     1      95.237   2.286  26.581  0.00  0.00    +0.000 A 
ATOM     12  C   UNL     1      95.675   3.315  27.408  0.00  0.00    +0.000 A 
ATOM     13  C   UNL     1      94.578   2.564  25.389  0.00  0.00    +0.000 A 
ATOM     14  C   UNL     1      95.450   4.641  27.036  0.00  0.00    +0.000 A 
ATOM     15  C   UNL     1      94.353   3.890  25.019  0.00  0.00    +0.000 A 
ATOM     16  C   UNL     1      94.789   4.928  25.842  0.00  0.00    +0.000 A 
BRANCH  14  17
ATOM     17  O   UNL     1      95.880   5.645  27.848  0.00  0.00    +0.000 OA
ATOM     18  H   UNL     1      96.065   5.269  28.727  0.00  0.00    +0.000 HD
ENDBRANCH  14  17
BRANCH  16  19
ATOM     19  O   UNL     1      94.562   6.219  25.469  0.00  0.00    +0.000 OA
ATOM     20  H   UNL     1      93.805   6.244  24.859  0.00  0.00    +0.000 HD
ENDBRANCH  16  19
ENDBRANCH   3  11
BRANCH   7  21
ATOM     21  O   UNL     1      95.591  -3.645  29.185  0.00  0.00    +0.000 OA
ATOM     22  H   UNL     1      95.571  -4.608  29.070  0.00  0.00    +0.000 HD
ENDBRANCH   7  21
BRANCH  10  23
ATOM     23  O   UNL     1      98.636  -3.958  25.544  0.00  0.00    +0.000 OA
ATOM     24  H   UNL     1      98.289  -4.860  25.436  0.00  0.00    +0.000 HD
ENDBRANCH  10  23
BRANCH   2  25
ATOM     25  O   UNL     1      93.772   1.134  28.777  0.00  0.00    +0.000 OA
BRANCH  25  31
ATOM     26  O   UNL     1      92.306   0.055  27.318  0.00  0.00    +0.000 OA
ATOM     27  C   UNL     1      90.027   1.284  28.562  0.00  0.00    +0.000 C 
ATOM     28  C   UNL     1      89.937   0.562  27.217  0.00  0.00    +0.000 C 
ATOM     29  C   UNL     1      91.459   1.735  28.852  0.00  0.00    +0.000 C 
ATOM     30  C   UNL     1      91.015  -0.520  27.109  0.00  0.00    +0.000 C 
ATOM     31  C   UNL     1      92.457   0.600  28.626  0.00  0.00    +0.000 C 
BRANCH  27  32
ATOM     32  O   UNL     1      89.170   2.426  28.508  0.00  0.00    +0.000 OA
ATOM     33  H   UNL     1      88.249   2.113  28.504  0.00  0.00    +0.000 HD
ENDBRANCH  27  32
BRANCH  28  34
ATOM     34  O   UNL     1      88.652  -0.040  27.090  0.00  0.00    +0.000 OA
ATOM     35  H   UNL     1      88.568  -0.375  26.182  0.00  0.00    +0.000 HD
ENDBRANCH  28  34
BRANCH  29  36
ATOM     36  O   UNL     1      91.557   2.151  30.215  0.00  0.00    +0.000 OA
ATOM     37  H   UNL     1      92.104   1.496  30.681  0.00  0.00    +0.000 HD
ENDBRANCH  29  36
BRANCH  30  38
ATOM     38  C   UNL     1      91.020  -1.176  25.731  0.00  0.00    +0.000 C 
BRANCH  38  39
ATOM     39  O   UNL     1      90.183  -2.317  25.773  0.00  0.00    +0.000 OA
ATOM     40  H   UNL     1      89.276  -2.026  25.571  0.00  0.00    +0.000 HD
ENDBRANCH  38  39
ENDBRANCH  30  38
ENDBRANCH  25  31
ENDBRANCH   2  25
TORSDOF 12
