REMARK VINA RESULT:      -7.4      2.404      5.851
REMARK  Name = 441667
REMARK  12 active torsions:
REMARK  status: ('A' for Active; 'I' for Inactive)
REMARK    1  A    between atoms: O_2  and  C_16
REMARK    2  A    between atoms: O_2  and  C_18
REMARK    3  A    between atoms: O_3  and  C_12
REMARK    4  A    between atoms: O_4  and  C_13
REMARK    5  A    between atoms: O_5  and  C_14
REMARK    6  A    between atoms: O_6  and  C_17
REMARK    7  A    between atoms: O_8  and  C_24
REMARK    8  A    between atoms: O_9  and  C_29
REMARK    9  A    between atoms: O_10  and  C_30
REMARK   10  A    between atoms: O_11  and  C_32
REMARK   11  A    between atoms: C_15  and  C_17
REMARK   12  A    between atoms: C_19  and  C_23
REMARK                            x       y       z     vdW  Elec       q    Type
REMARK                         _______ _______ _______ _____ _____    ______ ____
ROOT
ATOM      1  O   UNL     1      97.135   0.805  28.793  0.00  0.00    +0.000 OA
ATOM      2  C   UNL     1      95.105   0.588  27.390  0.00  0.00    +0.000 A 
ATOM      3  C   UNL     1      96.478   0.199  27.844  0.00  0.00    +0.000 A 
ATOM      4  C   UNL     1      94.559   1.659  27.979  0.00  0.00    +0.000 A 
ATOM      5  C   UNL     1      95.280   2.386  29.018  0.00  0.00    +0.000 A 
ATOM      6  C   UNL     1      96.544   1.928  29.402  0.00  0.00    +0.000 A 
ATOM      7  C   UNL     1      94.732   3.510  29.643  0.00  0.00    +0.000 A 
ATOM      8  C   UNL     1      97.257   2.588  30.404  0.00  0.00    +0.000 A 
ATOM      9  C   UNL     1      95.447   4.170  30.644  0.00  0.00    +0.000 A 
ATOM     10  C   UNL     1      96.707   3.710  31.024  0.00  0.00    +0.000 A 
ENDROOT
BRANCH   3  11
ATOM     11  C   UNL     1      97.111  -0.968  27.186  0.00  0.00    +0.000 A 
ATOM     12  C   UNL     1      97.995  -0.768  26.132  0.00  0.00    +0.000 A 
ATOM     13  C   UNL     1      96.813  -2.252  27.630  0.00  0.00    +0.000 A 
ATOM     14  C   UNL     1      98.591  -1.869  25.514  0.00  0.00    +0.000 A 
ATOM     15  C   UNL     1      97.409  -3.351  27.011  0.00  0.00    +0.000 A 
ATOM     16  C   UNL     1      98.297  -3.159  25.953  0.00  0.00    +0.000 A 
BRANCH  14  17
ATOM     17  O   UNL     1      99.456  -1.668  24.482  0.00  0.00    +0.000 OA
ATOM     18  H   UNL     1      99.837  -2.528  24.231  0.00  0.00    +0.000 HD
ENDBRANCH  14  17
BRANCH  16  19
ATOM     19  O   UNL     1      98.872  -4.241  25.356  0.00  0.00    +0.000 OA
ATOM     20  H   UNL     1      99.117  -4.007  24.444  0.00  0.00    +0.000 HD
ENDBRANCH  16  19
ENDBRANCH   3  11
BRANCH   7  21
ATOM     21  O   UNL     1      93.502   3.989  29.303  0.00  0.00    +0.000 OA
ATOM     22  H   UNL     1      93.564   4.916  29.022  0.00  0.00    +0.000 HD
ENDBRANCH   7  21
BRANCH  10  23
ATOM     23  O   UNL     1      97.402   4.355  32.001  0.00  0.00    +0.000 OA
ATOM     24  H   UNL     1      97.121   5.286  32.025  0.00  0.00    +0.000 HD
ENDBRANCH  10  23
BRANCH   2  25
ATOM     25  O   UNL     1      94.443  -0.169  26.450  0.00  0.00    +0.000 OA
BRANCH  25  31
ATOM     26  O   UNL     1      93.471  -2.131  27.254  0.00  0.00    +0.000 OA
ATOM     27  C   UNL     1      90.863  -1.297  26.386  0.00  0.00    +0.000 C 
ATOM     28  C   UNL     1      91.163  -2.732  26.819  0.00  0.00    +0.000 C 
ATOM     29  C   UNL     1      92.139  -0.571  25.956  0.00  0.00    +0.000 C 
ATOM     30  C   UNL     1      92.322  -2.767  27.818  0.00  0.00    +0.000 C 
ATOM     31  C   UNL     1      93.253  -0.748  26.986  0.00  0.00    +0.000 C 
BRANCH  27  32
ATOM     32  O   UNL     1      89.951  -1.348  25.288  0.00  0.00    +0.000 OA
ATOM     33  H   UNL     1      89.310  -2.059  25.460  0.00  0.00    +0.000 HD
ENDBRANCH  27  32
BRANCH  28  34
ATOM     34  O   UNL     1      90.002  -3.295  27.425  0.00  0.00    +0.000 OA
ATOM     35  H   UNL     1      89.541  -2.585  27.902  0.00  0.00    +0.000 HD
ENDBRANCH  28  34
BRANCH  29  36
ATOM     36  O   UNL     1      91.868   0.825  25.826  0.00  0.00    +0.000 OA
ATOM     37  H   UNL     1      92.192   1.261  26.633  0.00  0.00    +0.000 HD
ENDBRANCH  29  36
BRANCH  30  38
ATOM     38  C   UNL     1      92.716  -4.197  28.176  0.00  0.00    +0.000 C 
BRANCH  38  39
ATOM     39  O   UNL     1      92.024  -5.084  27.316  0.00  0.00    +0.000 OA
ATOM     40  H   UNL     1      91.159  -5.273  27.721  0.00  0.00    +0.000 HD
ENDBRANCH  38  39
ENDBRANCH  30  38
ENDBRANCH  25  31
ENDBRANCH   2  25
TORSDOF 12
