REMARK VINA RESULT:      -7.2      1.878      6.567
REMARK  Name = 441667
REMARK  12 active torsions:
REMARK  status: ('A' for Active; 'I' for Inactive)
REMARK    1  A    between atoms: O_2  and  C_16
REMARK    2  A    between atoms: O_2  and  C_18
REMARK    3  A    between atoms: O_3  and  C_12
REMARK    4  A    between atoms: O_4  and  C_13
REMARK    5  A    between atoms: O_5  and  C_14
REMARK    6  A    between atoms: O_6  and  C_17
REMARK    7  A    between atoms: O_8  and  C_24
REMARK    8  A    between atoms: O_9  and  C_29
REMARK    9  A    between atoms: O_10  and  C_30
REMARK   10  A    between atoms: O_11  and  C_32
REMARK   11  A    between atoms: C_15  and  C_17
REMARK   12  A    between atoms: C_19  and  C_23
REMARK                            x       y       z     vdW  Elec       q    Type
REMARK                         _______ _______ _______ _____ _____    ______ ____
ROOT
ATOM      1  O   UNL     1      93.809  -2.767  27.302  0.00  0.00    +0.000 OA
ATOM      2  C   UNL     1      94.273  -0.382  26.823  0.00  0.00    +0.000 A 
ATOM      3  C   UNL     1      94.655  -1.782  27.188  0.00  0.00    +0.000 A 
ATOM      4  C   UNL     1      92.966  -0.141  26.653  0.00  0.00    +0.000 A 
ATOM      5  C   UNL     1      91.986  -1.211  26.809  0.00  0.00    +0.000 A 
ATOM      6  C   UNL     1      92.441  -2.496  27.118  0.00  0.00    +0.000 A 
ATOM      7  C   UNL     1      90.617  -0.982  26.643  0.00  0.00    +0.000 A 
ATOM      8  C   UNL     1      91.534  -3.548  27.260  0.00  0.00    +0.000 A 
ATOM      9  C   UNL     1      89.711  -2.035  26.787  0.00  0.00    +0.000 A 
ATOM     10  C   UNL     1      90.169  -3.316  27.094  0.00  0.00    +0.000 A 
ENDROOT
BRANCH   3  11
ATOM     11  C   UNL     1      96.095  -2.062  27.405  0.00  0.00    +0.000 A 
ATOM     12  C   UNL     1      96.928  -2.267  26.312  0.00  0.00    +0.000 A 
ATOM     13  C   UNL     1      96.596  -2.116  28.701  0.00  0.00    +0.000 A 
ATOM     14  C   UNL     1      98.283  -2.531  26.518  0.00  0.00    +0.000 A 
ATOM     15  C   UNL     1      97.951  -2.380  28.906  0.00  0.00    +0.000 A 
ATOM     16  C   UNL     1      98.794  -2.587  27.815  0.00  0.00    +0.000 A 
BRANCH  14  17
ATOM     17  O   UNL     1      99.096  -2.731  25.444  0.00  0.00    +0.000 OA
ATOM     18  H   UNL     1      99.044  -1.946  24.871  0.00  0.00    +0.000 HD
ENDBRANCH  14  17
BRANCH  16  19
ATOM     19  O   UNL     1     100.114  -2.845  28.028  0.00  0.00    +0.000 OA
ATOM     20  H   UNL     1     100.561  -2.020  28.286  0.00  0.00    +0.000 HD
ENDBRANCH  16  19
ENDBRANCH   3  11
BRANCH   7  21
ATOM     21  O   UNL     1      90.130   0.254  26.339  0.00  0.00    +0.000 OA
ATOM     22  H   UNL     1      90.701   0.945  26.710  0.00  0.00    +0.000 HD
ENDBRANCH   7  21
BRANCH  10  23
ATOM     23  O   UNL     1      89.284  -4.340  27.233  0.00  0.00    +0.000 OA
ATOM     24  H   UNL     1      88.566  -4.058  27.826  0.00  0.00    +0.000 HD
ENDBRANCH  10  23
BRANCH   2  25
ATOM     25  O   UNL     1      95.241   0.576  26.626  0.00  0.00    +0.000 OA
BRANCH  25  31
ATOM     26  O   UNL     1      94.946   2.847  26.177  0.00  0.00    +0.000 OA
ATOM     27  C   UNL     1      95.546   3.549  28.897  0.00  0.00    +0.000 C 
ATOM     28  C   UNL     1      95.492   4.586  27.775  0.00  0.00    +0.000 C 
ATOM     29  C   UNL     1      95.794   2.146  28.342  0.00  0.00    +0.000 C 
ATOM     30  C   UNL     1      94.548   4.131  26.660  0.00  0.00    +0.000 C 
ATOM     31  C   UNL     1      94.855   1.835  27.177  0.00  0.00    +0.000 C 
BRANCH  27  32
ATOM     32  O   UNL     1      96.611   3.907  29.779  0.00  0.00    +0.000 OA
ATOM     33  H   UNL     1      96.242   4.457  30.492  0.00  0.00    +0.000 HD
ENDBRANCH  27  32
BRANCH  28  34
ATOM     34  O   UNL     1      95.034   5.829  28.302  0.00  0.00    +0.000 OA
ATOM     35  H   UNL     1      95.136   5.798  29.268  0.00  0.00    +0.000 HD
ENDBRANCH  28  34
BRANCH  29  36
ATOM     36  O   UNL     1      95.565   1.183  29.371  0.00  0.00    +0.000 OA
ATOM     37  H   UNL     1      94.662   0.840  29.253  0.00  0.00    +0.000 HD
ENDBRANCH  29  36
BRANCH  30  38
ATOM     38  C   UNL     1      94.566   5.094  25.476  0.00  0.00    +0.000 C 
BRANCH  38  39
ATOM     39  O   UNL     1      95.769   5.840  25.521  0.00  0.00    +0.000 OA
ATOM     40  H   UNL     1      95.557   6.723  25.870  0.00  0.00    +0.000 HD
ENDBRANCH  38  39
ENDBRANCH  30  38
ENDBRANCH  25  31
ENDBRANCH   2  25
TORSDOF 12
