MODEL 1
REMARK VINA RESULT:      -5.9      0.000      0.000
REMARK  Name = 118736856
REMARK  9 active torsions:
REMARK  status: ('A' for Active; 'I' for Inactive)
REMARK    1  A    between atoms: O_2  and  C_11
REMARK    2  A    between atoms: O_2  and  C_15
REMARK    3  A    between atoms: O_3  and  C_19
REMARK    4  A    between atoms: O_3  and  C_27
REMARK    5  A    between atoms: N_5  and  C_8
REMARK    6  A    between atoms: N_5  and  C_14
REMARK    7  A    between atoms: N_6  and  C_25
REMARK    8  A    between atoms: C_15  and  C_19
REMARK    9  A    between atoms: C_23  and  C_26
REMARK                            x       y       z     vdW  Elec       q    Type
REMARK                         _______ _______ _______ _____ _____    ______ ____
ROOT
ATOM      1  O   UNL     1      85.655  -2.030  26.380  0.00  0.00    +0.000 OA
ATOM      2  N   UNL     1      84.880   0.135  26.760  0.00  0.00    +0.000 N 
ATOM      3  C   UNL     1      85.086   0.504  23.939  0.00  0.00    +0.000 A 
ATOM      4  C   UNL     1      84.612   1.607  24.807  0.00  0.00    +0.000 A 
ATOM      5  C   UNL     1      85.413  -0.664  24.510  0.00  0.00    +0.000 A 
ATOM      6  C   UNL     1      84.518   1.403  26.202  0.00  0.00    +0.000 A 
ATOM      7  C   UNL     1      84.250   2.865  24.287  0.00  0.00    +0.000 A 
ATOM      8  C   UNL     1      85.327  -0.917  25.967  0.00  0.00    +0.000 A 
ATOM      9  C   UNL     1      84.067   2.456  27.023  0.00  0.00    +0.000 A 
ATOM     10  C   UNL     1      83.806   3.896  25.116  0.00  0.00    +0.000 A 
ATOM     11  C   UNL     1      83.713   3.691  26.483  0.00  0.00    +0.000 A 
ATOM     12  C   UNL     1      84.776  -0.060  28.205  0.00  0.00    +0.000 C 
ENDROOT
BRANCH  10  15
ATOM     13  S   UNL     1      81.904   5.853  24.893  0.00  0.00    +0.000 S 
ATOM     14  N   UNL     1      83.501   7.184  23.357  0.00  0.00    +0.000 NA
ATOM     15  C   UNL     1      83.441   5.173  24.551  0.00  0.00    +0.000 A 
ATOM     16  C   UNL     1      84.148   6.019  23.723  0.00  0.00    +0.000 A 
ATOM     17  C   UNL     1      82.311   7.203  23.914  0.00  0.00    +0.000 A 
ENDBRANCH  10  15
BRANCH   3  18
ATOM     18  N   UNL     1      85.182   0.685  22.585  0.00  0.00    +0.000 N 
ATOM     19  H   UNL     1      84.730   1.487  22.166  0.00  0.00    +0.000 HD
BRANCH  18  20
ATOM     20  C   UNL     1      86.047  -0.107  21.738  0.00  0.00    +0.000 C 
ATOM     21  C   UNL     1      85.287  -0.517  20.474  0.00  0.00    +0.000 C 
ATOM     22  C   UNL     1      87.305   0.695  21.401  0.00  0.00    +0.000 C 
ATOM     23  C   UNL     1      87.446  -0.470  19.163  0.00  0.00    +0.000 C 
ATOM     24  C   UNL     1      86.190  -1.270  19.501  0.00  0.00    +0.000 C 
ATOM     25  C   UNL     1      88.204  -0.060  20.425  0.00  0.00    +0.000 C 
BRANCH  23  26
ATOM     26  O   UNL     1      88.287  -1.271  18.339  0.00  0.00    +0.000 OA
BRANCH  26  27
ATOM     27  C   UNL     1      89.303  -0.494  17.722  0.00  0.00    +0.000 C 
BRANCH  27  28
ATOM     28  C   UNL     1      88.695   0.291  16.575  0.00  0.00    +0.000 C 
BRANCH  28  29
ATOM     29  O   UNL     1      89.736   0.936  15.851  0.00  0.00    +0.000 OA
ATOM     30  C   UNL     1      90.994   0.320  16.087  0.00  0.00    +0.000 C 
ENDBRANCH  28  29
ENDBRANCH  27  28
ENDBRANCH  26  27
ENDBRANCH  23  26
ENDBRANCH  18  20
ENDBRANCH   3  18
TORSDOF 7
ENDMDL
MODEL 2
REMARK VINA RESULT:      -5.5      1.281      1.778
REMARK  Name = 118736856
REMARK  9 active torsions:
REMARK  status: ('A' for Active; 'I' for Inactive)
REMARK    1  A    between atoms: O_2  and  C_11
REMARK    2  A    between atoms: O_2  and  C_15
REMARK    3  A    between atoms: O_3  and  C_19
REMARK    4  A    between atoms: O_3  and  C_27
REMARK    5  A    between atoms: N_5  and  C_8
REMARK    6  A    between atoms: N_5  and  C_14
REMARK    7  A    between atoms: N_6  and  C_25
REMARK    8  A    between atoms: C_15  and  C_19
REMARK    9  A    between atoms: C_23  and  C_26
REMARK                            x       y       z     vdW  Elec       q    Type
REMARK                         _______ _______ _______ _____ _____    ______ ____
ROOT
ATOM      1  O   UNL     1      85.713  -2.094  26.295  0.00  0.00    +0.000 OA
ATOM      2  N   UNL     1      84.981   0.099  26.588  0.00  0.00    +0.000 N 
ATOM      3  C   UNL     1      85.018   0.295  23.742  0.00  0.00    +0.000 A 
ATOM      4  C   UNL     1      84.608   1.454  24.569  0.00  0.00    +0.000 A 
ATOM      5  C   UNL     1      85.369  -0.840  24.363  0.00  0.00    +0.000 A 
ATOM      6  C   UNL     1      84.596   1.336  25.976  0.00  0.00    +0.000 A 
ATOM      7  C   UNL     1      84.225   2.683  23.996  0.00  0.00    +0.000 A 
ATOM      8  C   UNL     1      85.370  -1.004  25.835  0.00  0.00    +0.000 A 
ATOM      9  C   UNL     1      84.205   2.442  26.758  0.00  0.00    +0.000 A 
ATOM     10  C   UNL     1      83.841   3.768  24.786  0.00  0.00    +0.000 A 
ATOM     11  C   UNL     1      83.830   3.647  26.166  0.00  0.00    +0.000 A 
ATOM     12  C   UNL     1      84.963  -0.007  28.046  0.00  0.00    +0.000 C 
ENDROOT
BRANCH  10  15
ATOM     13  S   UNL     1      81.896   5.173  23.467  0.00  0.00    +0.000 S 
ATOM     14  N   UNL     1      83.482   7.211  23.368  0.00  0.00    +0.000 NA
ATOM     15  C   UNL     1      83.453   5.012  24.168  0.00  0.00    +0.000 A 
ATOM     16  C   UNL     1      84.151   6.193  24.021  0.00  0.00    +0.000 A 
ATOM     17  C   UNL     1      82.285   6.787  23.031  0.00  0.00    +0.000 A 
ENDBRANCH  10  15
BRANCH   3  18
ATOM     18  N   UNL     1      85.034   0.394  22.377  0.00  0.00    +0.000 N 
ATOM     19  H   UNL     1      84.413   1.054  21.927  0.00  0.00    +0.000 HD
BRANCH  18  20
ATOM     20  C   UNL     1      86.017  -0.265  21.545  0.00  0.00    +0.000 C 
ATOM     21  C   UNL     1      85.414  -0.547  20.167  0.00  0.00    +0.000 C 
ATOM     22  C   UNL     1      87.267   0.611  21.442  0.00  0.00    +0.000 C 
ATOM     23  C   UNL     1      87.695  -0.276  19.115  0.00  0.00    +0.000 C 
ATOM     24  C   UNL     1      86.448  -1.151  19.220  0.00  0.00    +0.000 C 
ATOM     25  C   UNL     1      88.297   0.007  20.492  0.00  0.00    +0.000 C 
BRANCH  23  26
ATOM     26  O   UNL     1      88.653  -0.947  18.303  0.00  0.00    +0.000 OA
BRANCH  26  27
ATOM     27  C   UNL     1      88.962  -2.233  18.820  0.00  0.00    +0.000 C 
BRANCH  27  28
ATOM     28  C   UNL     1      90.100  -2.829  18.014  0.00  0.00    +0.000 C 
BRANCH  28  29
ATOM     29  O   UNL     1      90.757  -3.817  18.798  0.00  0.00    +0.000 OA
ATOM     30  C   UNL     1      90.022  -4.124  19.974  0.00  0.00    +0.000 C 
ENDBRANCH  28  29
ENDBRANCH  27  28
ENDBRANCH  26  27
ENDBRANCH  23  26
ENDBRANCH  18  20
ENDBRANCH   3  18
TORSDOF 7
ENDMDL
MODEL 3
REMARK VINA RESULT:      -5.0      5.459     10.428
REMARK  Name = 118736856
REMARK  9 active torsions:
REMARK  status: ('A' for Active; 'I' for Inactive)
REMARK    1  A    between atoms: O_2  and  C_11
REMARK    2  A    between atoms: O_2  and  C_15
REMARK    3  A    between atoms: O_3  and  C_19
REMARK    4  A    between atoms: O_3  and  C_27
REMARK    5  A    between atoms: N_5  and  C_8
REMARK    6  A    between atoms: N_5  and  C_14
REMARK    7  A    between atoms: N_6  and  C_25
REMARK    8  A    between atoms: C_15  and  C_19
REMARK    9  A    between atoms: C_23  and  C_26
REMARK                            x       y       z     vdW  Elec       q    Type
REMARK                         _______ _______ _______ _____ _____    ______ ____
ROOT
ATOM      1  O   UNL     1      85.151  -2.433  29.081  0.00  0.00    +0.000 OA
ATOM      2  N   UNL     1      85.158  -0.959  27.276  0.00  0.00    +0.000 N 
ATOM      3  C   UNL     1      83.991   0.937  29.059  0.00  0.00    +0.000 A 
ATOM      4  C   UNL     1      84.268   1.303  27.650  0.00  0.00    +0.000 A 
ATOM      5  C   UNL     1      84.302  -0.300  29.470  0.00  0.00    +0.000 A 
ATOM      6  C   UNL     1      84.846   0.349  26.783  0.00  0.00    +0.000 A 
ATOM      7  C   UNL     1      83.971   2.582  27.137  0.00  0.00    +0.000 A 
ATOM      8  C   UNL     1      84.909  -1.328  28.594  0.00  0.00    +0.000 A 
ATOM      9  C   UNL     1      85.107   0.703  25.444  0.00  0.00    +0.000 A 
ATOM     10  C   UNL     1      84.236   2.914  25.808  0.00  0.00    +0.000 A 
ATOM     11  C   UNL     1      84.805   1.975  24.962  0.00  0.00    +0.000 A 
ATOM     12  C   UNL     1      85.757  -1.935  26.367  0.00  0.00    +0.000 C 
ENDROOT
BRANCH  10  15
ATOM     13  S   UNL     1      83.099   4.415  23.820  0.00  0.00    +0.000 S 
ATOM     14  N   UNL     1      83.737   6.557  25.120  0.00  0.00    +0.000 NA
ATOM     15  C   UNL     1      83.922   4.232  25.314  0.00  0.00    +0.000 A 
ATOM     16  C   UNL     1      84.175   5.474  25.858  0.00  0.00    +0.000 A 
ATOM     17  C   UNL     1      83.155   6.118  24.026  0.00  0.00    +0.000 A 
ENDBRANCH  10  15
BRANCH   3  18
ATOM     18  N   UNL     1      83.432   1.851  29.911  0.00  0.00    +0.000 N 
ATOM     19  H   UNL     1      82.705   2.464  29.563  0.00  0.00    +0.000 HD
BRANCH  18  20
ATOM     20  C   UNL     1      83.693   1.873  31.333  0.00  0.00    +0.000 C 
ATOM     21  C   UNL     1      84.678   3.001  31.654  0.00  0.00    +0.000 C 
ATOM     22  C   UNL     1      82.376   2.047  32.092  0.00  0.00    +0.000 C 
ATOM     23  C   UNL     1      83.593   3.303  33.915  0.00  0.00    +0.000 C 
ATOM     24  C   UNL     1      84.907   3.128  33.157  0.00  0.00    +0.000 C 
ATOM     25  C   UNL     1      82.609   2.178  33.594  0.00  0.00    +0.000 C 
BRANCH  23  26
ATOM     26  O   UNL     1      83.871   3.311  35.311  0.00  0.00    +0.000 OA
BRANCH  26  27
ATOM     27  C   UNL     1      83.587   2.052  35.904  0.00  0.00    +0.000 C 
BRANCH  27  28
ATOM     28  C   UNL     1      84.876   1.452  36.432  0.00  0.00    +0.000 C 
BRANCH  28  29
ATOM     29  O   UNL     1      84.912   0.068  36.105  0.00  0.00    +0.000 OA
ATOM     30  C   UNL     1      85.431  -0.147  34.801  0.00  0.00    +0.000 C 
ENDBRANCH  28  29
ENDBRANCH  27  28
ENDBRANCH  26  27
ENDBRANCH  23  26
ENDBRANCH  18  20
ENDBRANCH   3  18
TORSDOF 7
ENDMDL
MODEL 4
REMARK VINA RESULT:      -5.0      3.067      5.550
REMARK  Name = 118736856
REMARK  9 active torsions:
REMARK  status: ('A' for Active; 'I' for Inactive)
REMARK    1  A    between atoms: O_2  and  C_11
REMARK    2  A    between atoms: O_2  and  C_15
REMARK    3  A    between atoms: O_3  and  C_19
REMARK    4  A    between atoms: O_3  and  C_27
REMARK    5  A    between atoms: N_5  and  C_8
REMARK    6  A    between atoms: N_5  and  C_14
REMARK    7  A    between atoms: N_6  and  C_25
REMARK    8  A    between atoms: C_15  and  C_19
REMARK    9  A    between atoms: C_23  and  C_26
REMARK                            x       y       z     vdW  Elec       q    Type
REMARK                         _______ _______ _______ _____ _____    ______ ____
ROOT
ATOM      1  O   UNL     1      83.470   3.620  23.866  0.00  0.00    +0.000 OA
ATOM      2  N   UNL     1      84.289   2.231  25.549  0.00  0.00    +0.000 N 
ATOM      3  C   UNL     1      84.527   0.232  23.527  0.00  0.00    +0.000 A 
ATOM      4  C   UNL     1      84.921  -0.063  24.925  0.00  0.00    +0.000 A 
ATOM      5  C   UNL     1      84.059   1.455  23.240  0.00  0.00    +0.000 A 
ATOM      6  C   UNL     1      84.795   0.940  25.911  0.00  0.00    +0.000 A 
ATOM      7  C   UNL     1      85.421  -1.323  25.310  0.00  0.00    +0.000 A 
ATOM      8  C   UNL     1      83.912   2.534  24.245  0.00  0.00    +0.000 A 
ATOM      9  C   UNL     1      85.172   0.654  27.238  0.00  0.00    +0.000 A 
ATOM     10  C   UNL     1      85.789  -1.589  26.630  0.00  0.00    +0.000 A 
ATOM     11  C   UNL     1      85.665  -0.600  27.593  0.00  0.00    +0.000 A 
ATOM     12  C   UNL     1      84.166   3.259  26.580  0.00  0.00    +0.000 C 
ENDROOT
BRANCH  10  15
ATOM     13  S   UNL     1      86.032  -4.232  25.958  0.00  0.00    +0.000 S 
ATOM     14  N   UNL     1      87.358  -4.630  28.141  0.00  0.00    +0.000 NA
ATOM     15  C   UNL     1      86.299  -2.889  26.991  0.00  0.00    +0.000 A 
ATOM     16  C   UNL     1      87.019  -3.291  28.097  0.00  0.00    +0.000 A 
ATOM     17  C   UNL     1      86.890  -5.223  27.066  0.00  0.00    +0.000 A 
ENDBRANCH  10  15
BRANCH   3  18
ATOM     18  N   UNL     1      84.643  -0.730  22.560  0.00  0.00    +0.000 N 
ATOM     19  H   UNL     1      83.984  -1.497  22.551  0.00  0.00    +0.000 HD
BRANCH  18  20
ATOM     20  C   UNL     1      85.549  -0.620  21.438  0.00  0.00    +0.000 C 
ATOM     21  C   UNL     1      86.709   0.309  21.807  0.00  0.00    +0.000 C 
ATOM     22  C   UNL     1      86.049  -2.013  21.048  0.00  0.00    +0.000 C 
ATOM     23  C   UNL     1      88.246  -1.013  20.300  0.00  0.00    +0.000 C 
ATOM     24  C   UNL     1      87.745   0.377  20.689  0.00  0.00    +0.000 C 
ATOM     25  C   UNL     1      87.089  -1.941  19.933  0.00  0.00    +0.000 C 
BRANCH  23  26
ATOM     26  O   UNL     1      89.126  -0.883  19.188  0.00  0.00    +0.000 OA
BRANCH  26  27
ATOM     27  C   UNL     1      88.433  -0.458  18.024  0.00  0.00    +0.000 C 
BRANCH  27  28
ATOM     28  C   UNL     1      89.428  -0.283  16.893  0.00  0.00    +0.000 C 
BRANCH  28  29
ATOM     29  O   UNL     1      90.747  -0.375  17.416  0.00  0.00    +0.000 OA
ATOM     30  C   UNL     1      91.589  -1.152  16.576  0.00  0.00    +0.000 C 
ENDBRANCH  28  29
ENDBRANCH  27  28
ENDBRANCH  26  27
ENDBRANCH  23  26
ENDBRANCH  18  20
ENDBRANCH   3  18
TORSDOF 7
ENDMDL
MODEL 5
REMARK VINA RESULT:      -5.0     15.359     17.877
REMARK  Name = 118736856
REMARK  9 active torsions:
REMARK  status: ('A' for Active; 'I' for Inactive)
REMARK    1  A    between atoms: O_2  and  C_11
REMARK    2  A    between atoms: O_2  and  C_15
REMARK    3  A    between atoms: O_3  and  C_19
REMARK    4  A    between atoms: O_3  and  C_27
REMARK    5  A    between atoms: N_5  and  C_8
REMARK    6  A    between atoms: N_5  and  C_14
REMARK    7  A    between atoms: N_6  and  C_25
REMARK    8  A    between atoms: C_15  and  C_19
REMARK    9  A    between atoms: C_23  and  C_26
REMARK                            x       y       z     vdW  Elec       q    Type
REMARK                         _______ _______ _______ _____ _____    ______ ____
ROOT
ATOM      1  O   UNL     1      99.331   5.742  26.472  0.00  0.00    +0.000 OA
ATOM      2  N   UNL     1      98.453   3.584  26.404  0.00  0.00    +0.000 N 
ATOM      3  C   UNL     1     100.504   2.892  28.262  0.00  0.00    +0.000 A 
ATOM      4  C   UNL     1      99.543   1.868  27.791  0.00  0.00    +0.000 A 
ATOM      5  C   UNL     1     100.386   4.144  27.796  0.00  0.00    +0.000 A 
ATOM      6  C   UNL     1      98.535   2.232  26.870  0.00  0.00    +0.000 A 
ATOM      7  C   UNL     1      99.599   0.531  28.230  0.00  0.00    +0.000 A 
ATOM      8  C   UNL     1      99.343   4.564  26.832  0.00  0.00    +0.000 A 
ATOM      9  C   UNL     1      97.623   1.254  26.425  0.00  0.00    +0.000 A 
ATOM     10  C   UNL     1      98.687  -0.424  27.778  0.00  0.00    +0.000 A 
ATOM     11  C   UNL     1      97.699  -0.062  26.876  0.00  0.00    +0.000 A 
ATOM     12  C   UNL     1      97.404   3.945  25.452  0.00  0.00    +0.000 C 
ENDROOT
BRANCH  10  15
ATOM     13  S   UNL     1     100.255  -2.638  28.147  0.00  0.00    +0.000 S 
ATOM     14  N   UNL     1      98.220  -3.869  29.159  0.00  0.00    +0.000 NA
ATOM     15  C   UNL     1      98.771  -1.785  28.249  0.00  0.00    +0.000 A 
ATOM     16  C   UNL     1      97.808  -2.597  28.812  0.00  0.00    +0.000 A 
ATOM     17  C   UNL     1      99.491  -4.003  28.854  0.00  0.00    +0.000 A 
ENDBRANCH  10  15
BRANCH   3  18
ATOM     18  N   UNL     1     101.487   2.555  29.155  0.00  0.00    +0.000 N 
ATOM     19  H   UNL     1     102.453   2.709  28.900  0.00  0.00    +0.000 HD
BRANCH  18  20
ATOM     20  C   UNL     1     101.215   2.157  30.519  0.00  0.00    +0.000 C 
ATOM     21  C   UNL     1     101.948   0.848  30.823  0.00  0.00    +0.000 C 
ATOM     22  C   UNL     1     101.645   3.274  31.472  0.00  0.00    +0.000 C 
ATOM     23  C   UNL     1     102.204   1.553  33.235  0.00  0.00    +0.000 C 
ATOM     24  C   UNL     1     101.774   0.439  32.283  0.00  0.00    +0.000 C 
ATOM     25  C   UNL     1     101.474   2.861  32.931  0.00  0.00    +0.000 C 
BRANCH  23  26
ATOM     26  O   UNL     1     101.918   1.146  34.569  0.00  0.00    +0.000 OA
BRANCH  26  27
ATOM     27  C   UNL     1     100.744   0.349  34.629  0.00  0.00    +0.000 C 
BRANCH  27  28
ATOM     28  C   UNL     1     100.048   0.594  35.954  0.00  0.00    +0.000 C 
BRANCH  28  29
ATOM     29  O   UNL     1      98.642   0.632  35.739  0.00  0.00    +0.000 OA
ATOM     30  C   UNL     1      98.260  -0.179  34.638  0.00  0.00    +0.000 C 
ENDBRANCH  28  29
ENDBRANCH  27  28
ENDBRANCH  26  27
ENDBRANCH  23  26
ENDBRANCH  18  20
ENDBRANCH   3  18
TORSDOF 7
ENDMDL
MODEL 6
REMARK VINA RESULT:      -4.8      4.565      9.708
REMARK  Name = 118736856
REMARK  9 active torsions:
REMARK  status: ('A' for Active; 'I' for Inactive)
REMARK    1  A    between atoms: O_2  and  C_11
REMARK    2  A    between atoms: O_2  and  C_15
REMARK    3  A    between atoms: O_3  and  C_19
REMARK    4  A    between atoms: O_3  and  C_27
REMARK    5  A    between atoms: N_5  and  C_8
REMARK    6  A    between atoms: N_5  and  C_14
REMARK    7  A    between atoms: N_6  and  C_25
REMARK    8  A    between atoms: C_15  and  C_19
REMARK    9  A    between atoms: C_23  and  C_26
REMARK                            x       y       z     vdW  Elec       q    Type
REMARK                         _______ _______ _______ _____ _____    ______ ____
ROOT
ATOM      1  O   UNL     1      84.234  -0.051  21.175  0.00  0.00    +0.000 OA
ATOM      2  N   UNL     1      84.694  -1.738  22.716  0.00  0.00    +0.000 N 
ATOM      3  C   UNL     1      85.122   0.359  24.603  0.00  0.00    +0.000 A 
ATOM      4  C   UNL     1      85.274  -1.058  25.008  0.00  0.00    +0.000 A 
ATOM      5  C   UNL     1      84.779   0.627  23.335  0.00  0.00    +0.000 A 
ATOM      6  C   UNL     1      85.058  -2.081  24.059  0.00  0.00    +0.000 A 
ATOM      7  C   UNL     1      85.632  -1.426  26.321  0.00  0.00    +0.000 A 
ATOM      8  C   UNL     1      84.544  -0.416  22.310  0.00  0.00    +0.000 A 
ATOM      9  C   UNL     1      85.205  -3.427  24.450  0.00  0.00    +0.000 A 
ATOM     10  C   UNL     1      85.773  -2.765  26.690  0.00  0.00    +0.000 A 
ATOM     11  C   UNL     1      85.558  -3.765  25.755  0.00  0.00    +0.000 A 
ATOM     12  C   UNL     1      84.473  -2.808  21.745  0.00  0.00    +0.000 C 
ENDROOT
BRANCH  10  15
ATOM     13  S   UNL     1      87.471  -4.150  28.332  0.00  0.00    +0.000 S 
ATOM     14  N   UNL     1      86.178  -3.243  30.378  0.00  0.00    +0.000 NA
ATOM     15  C   UNL     1      86.139  -3.108  28.042  0.00  0.00    +0.000 A 
ATOM     16  C   UNL     1      85.579  -2.728  29.244  0.00  0.00    +0.000 A 
ATOM     17  C   UNL     1      87.185  -4.006  30.018  0.00  0.00    +0.000 A 
ENDBRANCH  10  15
BRANCH   3  18
ATOM     18  N   UNL     1      85.327   1.361  25.512  0.00  0.00    +0.000 N 
ATOM     19  H   UNL     1      86.249   1.771  25.589  0.00  0.00    +0.000 HD
BRANCH  18  20
ATOM     20  C   UNL     1      84.256   1.995  26.249  0.00  0.00    +0.000 C 
ATOM     21  C   UNL     1      84.197   1.416  27.665  0.00  0.00    +0.000 C 
ATOM     22  C   UNL     1      84.478   3.509  26.272  0.00  0.00    +0.000 C 
ATOM     23  C   UNL     1      83.368   3.636  28.539  0.00  0.00    +0.000 C 
ATOM     24  C   UNL     1      83.147   2.125  28.514  0.00  0.00    +0.000 C 
ATOM     25  C   UNL     1      83.428   4.215  27.125  0.00  0.00    +0.000 C 
BRANCH  23  26
ATOM     26  O   UNL     1      82.298   4.240  29.258  0.00  0.00    +0.000 OA
BRANCH  26  27
ATOM     27  C   UNL     1      82.523   4.192  30.660  0.00  0.00    +0.000 C 
BRANCH  27  28
ATOM     28  C   UNL     1      83.905   4.741  30.957  0.00  0.00    +0.000 C 
BRANCH  28  29
ATOM     29  O   UNL     1      84.655   3.757  31.659  0.00  0.00    +0.000 OA
ATOM     30  C   UNL     1      83.806   2.851  32.351  0.00  0.00    +0.000 C 
ENDBRANCH  28  29
ENDBRANCH  27  28
ENDBRANCH  26  27
ENDBRANCH  23  26
ENDBRANCH  18  20
ENDBRANCH   3  18
TORSDOF 7
ENDMDL
MODEL 7
REMARK VINA RESULT:      -4.8      5.423      8.119
REMARK  Name = 118736856
REMARK  9 active torsions:
REMARK  status: ('A' for Active; 'I' for Inactive)
REMARK    1  A    between atoms: O_2  and  C_11
REMARK    2  A    between atoms: O_2  and  C_15
REMARK    3  A    between atoms: O_3  and  C_19
REMARK    4  A    between atoms: O_3  and  C_27
REMARK    5  A    between atoms: N_5  and  C_8
REMARK    6  A    between atoms: N_5  and  C_14
REMARK    7  A    between atoms: N_6  and  C_25
REMARK    8  A    between atoms: C_15  and  C_19
REMARK    9  A    between atoms: C_23  and  C_26
REMARK                            x       y       z     vdW  Elec       q    Type
REMARK                         _______ _______ _______ _____ _____    ______ ____
ROOT
ATOM      1  O   UNL     1      84.197   3.598  23.694  0.00  0.00    +0.000 OA
ATOM      2  N   UNL     1      83.959   4.042  25.969  0.00  0.00    +0.000 N 
ATOM      3  C   UNL     1      83.762   1.217  26.311  0.00  0.00    +0.000 A 
ATOM      4  C   UNL     1      83.677   2.122  27.481  0.00  0.00    +0.000 A 
ATOM      5  C   UNL     1      83.933   1.758  25.096  0.00  0.00    +0.000 A 
ATOM      6  C   UNL     1      83.777   3.518  27.290  0.00  0.00    +0.000 A 
ATOM      7  C   UNL     1      83.498   1.636  28.791  0.00  0.00    +0.000 A 
ATOM      8  C   UNL     1      84.042   3.215  24.854  0.00  0.00    +0.000 A 
ATOM      9  C   UNL     1      83.696   4.374  28.407  0.00  0.00    +0.000 A 
ATOM     10  C   UNL     1      83.419   2.499  29.885  0.00  0.00    +0.000 A 
ATOM     11  C   UNL     1      83.519   3.868  29.692  0.00  0.00    +0.000 A 
ATOM     12  C   UNL     1      84.061   5.489  25.788  0.00  0.00    +0.000 C 
ENDROOT
BRANCH  10  15
ATOM     13  S   UNL     1      84.342   2.379  32.460  0.00  0.00    +0.000 S 
ATOM     14  N   UNL     1      82.380   0.805  33.054  0.00  0.00    +0.000 NA
ATOM     15  C   UNL     1      83.237   1.969  31.214  0.00  0.00    +0.000 A 
ATOM     16  C   UNL     1      82.265   1.129  31.716  0.00  0.00    +0.000 A 
ATOM     17  C   UNL     1      83.438   1.406  33.548  0.00  0.00    +0.000 A 
ENDBRANCH  10  15
BRANCH   3  18
ATOM     18  N   UNL     1      83.668  -0.138  26.480  0.00  0.00    +0.000 N 
ATOM     19  H   UNL     1      82.755  -0.552  26.614  0.00  0.00    +0.000 HD
BRANCH  18  20
ATOM     20  C   UNL     1      84.786  -1.039  26.300  0.00  0.00    +0.000 C 
ATOM     21  C   UNL     1      85.738  -0.916  27.492  0.00  0.00    +0.000 C 
ATOM     22  C   UNL     1      84.267  -2.470  26.142  0.00  0.00    +0.000 C 
ATOM     23  C   UNL     1      86.365  -3.350  27.241  0.00  0.00    +0.000 C 
ATOM     24  C   UNL     1      86.882  -1.921  27.397  0.00  0.00    +0.000 C 
ATOM     25  C   UNL     1      85.413  -3.473  26.052  0.00  0.00    +0.000 C 
BRANCH  23  26
ATOM     26  O   UNL     1      87.479  -4.217  27.054  0.00  0.00    +0.000 OA
BRANCH  26  27
ATOM     27  C   UNL     1      87.955  -4.725  28.293  0.00  0.00    +0.000 C 
BRANCH  27  28
ATOM     28  C   UNL     1      86.780  -4.915  29.233  0.00  0.00    +0.000 C 
BRANCH  28  29
ATOM     29  O   UNL     1      87.115  -4.383  30.508  0.00  0.00    +0.000 OA
ATOM     30  C   UNL     1      88.515  -4.186  30.640  0.00  0.00    +0.000 C 
ENDBRANCH  28  29
ENDBRANCH  27  28
ENDBRANCH  26  27
ENDBRANCH  23  26
ENDBRANCH  18  20
ENDBRANCH   3  18
TORSDOF 7
ENDMDL
MODEL 8
REMARK VINA RESULT:      -4.7      5.780      7.439
REMARK  Name = 118736856
REMARK  9 active torsions:
REMARK  status: ('A' for Active; 'I' for Inactive)
REMARK    1  A    between atoms: O_2  and  C_11
REMARK    2  A    between atoms: O_2  and  C_15
REMARK    3  A    between atoms: O_3  and  C_19
REMARK    4  A    between atoms: O_3  and  C_27
REMARK    5  A    between atoms: N_5  and  C_8
REMARK    6  A    between atoms: N_5  and  C_14
REMARK    7  A    between atoms: N_6  and  C_25
REMARK    8  A    between atoms: C_15  and  C_19
REMARK    9  A    between atoms: C_23  and  C_26
REMARK                            x       y       z     vdW  Elec       q    Type
REMARK                         _______ _______ _______ _____ _____    ______ ____
ROOT
ATOM      1  O   UNL     1      83.261  -0.005  32.581  0.00  0.00    +0.000 OA
ATOM      2  N   UNL     1      83.522   1.928  31.305  0.00  0.00    +0.000 N 
ATOM      3  C   UNL     1      83.267   0.234  29.024  0.00  0.00    +0.000 A 
ATOM      4  C   UNL     1      83.470   1.692  28.857  0.00  0.00    +0.000 A 
ATOM      5  C   UNL     1      83.206  -0.265  30.267  0.00  0.00    +0.000 A 
ATOM      6  C   UNL     1      83.594   2.513  29.999  0.00  0.00    +0.000 A 
ATOM      7  C   UNL     1      83.546   2.295  27.585  0.00  0.00    +0.000 A 
ATOM      8  C   UNL     1      83.331   0.562  31.490  0.00  0.00    +0.000 A 
ATOM      9  C   UNL     1      83.787   3.899  29.833  0.00  0.00    +0.000 A 
ATOM     10  C   UNL     1      83.738   3.670  27.441  0.00  0.00    +0.000 A 
ATOM     11  C   UNL     1      83.858   4.472  28.565  0.00  0.00    +0.000 A 
ATOM     12  C   UNL     1      83.652   2.792  32.477  0.00  0.00    +0.000 C 
ENDROOT
BRANCH  10  15
ATOM     13  S   UNL     1      83.505   3.293  24.739  0.00  0.00    +0.000 S 
ATOM     14  N   UNL     1      84.085   5.786  24.375  0.00  0.00    +0.000 NA
ATOM     15  C   UNL     1      83.809   4.256  26.125  0.00  0.00    +0.000 A 
ATOM     16  C   UNL     1      84.098   5.548  25.737  0.00  0.00    +0.000 A 
ATOM     17  C   UNL     1      83.785   4.668  23.751  0.00  0.00    +0.000 A 
ENDBRANCH  10  15
BRANCH   3  18
ATOM     18  N   UNL     1      83.144  -0.575  27.926  0.00  0.00    +0.000 N 
ATOM     19  H   UNL     1      82.316  -0.496  27.350  0.00  0.00    +0.000 HD
BRANCH  18  20
ATOM     20  C   UNL     1      84.214  -1.417  27.439  0.00  0.00    +0.000 C 
ATOM     21  C   UNL     1      85.563  -0.772  27.770  0.00  0.00    +0.000 C 
ATOM     22  C   UNL     1      84.092  -2.810  28.060  0.00  0.00    +0.000 C 
ATOM     23  C   UNL     1      86.605  -3.063  27.985  0.00  0.00    +0.000 C 
ATOM     24  C   UNL     1      86.725  -1.673  27.364  0.00  0.00    +0.000 C 
ATOM     25  C   UNL     1      85.258  -3.707  27.656  0.00  0.00    +0.000 C 
BRANCH  23  26
ATOM     26  O   UNL     1      87.660  -3.877  27.484  0.00  0.00    +0.000 OA
BRANCH  26  27
ATOM     27  C   UNL     1      88.103  -4.810  28.459  0.00  0.00    +0.000 C 
BRANCH  27  28
ATOM     28  C   UNL     1      88.244  -4.101  29.792  0.00  0.00    +0.000 C 
BRANCH  28  29
ATOM     29  O   UNL     1      89.477  -4.480  30.392  0.00  0.00    +0.000 OA
ATOM     30  C   UNL     1      90.258  -3.346  30.740  0.00  0.00    +0.000 C 
ENDBRANCH  28  29
ENDBRANCH  27  28
ENDBRANCH  26  27
ENDBRANCH  23  26
ENDBRANCH  18  20
ENDBRANCH   3  18
TORSDOF 7
ENDMDL
MODEL 9
REMARK VINA RESULT:      -4.5      5.216      9.685
REMARK  Name = 118736856
REMARK  9 active torsions:
REMARK  status: ('A' for Active; 'I' for Inactive)
REMARK    1  A    between atoms: O_2  and  C_11
REMARK    2  A    between atoms: O_2  and  C_15
REMARK    3  A    between atoms: O_3  and  C_19
REMARK    4  A    between atoms: O_3  and  C_27
REMARK    5  A    between atoms: N_5  and  C_8
REMARK    6  A    between atoms: N_5  and  C_14
REMARK    7  A    between atoms: N_6  and  C_25
REMARK    8  A    between atoms: C_15  and  C_19
REMARK    9  A    between atoms: C_23  and  C_26
REMARK                            x       y       z     vdW  Elec       q    Type
REMARK                         _______ _______ _______ _____ _____    ______ ____
ROOT
ATOM      1  O   UNL     1      84.015  -1.106  27.829  0.00  0.00    +0.000 OA
ATOM      2  N   UNL     1      84.282   0.574  26.236  0.00  0.00    +0.000 N 
ATOM      3  C   UNL     1      82.272   2.000  27.674  0.00  0.00    +0.000 A 
ATOM      4  C   UNL     1      82.889   2.590  26.462  0.00  0.00    +0.000 A 
ATOM      5  C   UNL     1      82.681   0.787  28.073  0.00  0.00    +0.000 A 
ATOM      6  C   UNL     1      83.882   1.867  25.765  0.00  0.00    +0.000 A 
ATOM      7  C   UNL     1      82.516   3.858  25.975  0.00  0.00    +0.000 A 
ATOM      8  C   UNL     1      83.719  -0.002  27.370  0.00  0.00    +0.000 A 
ATOM      9  C   UNL     1      84.465   2.433  24.613  0.00  0.00    +0.000 A 
ATOM     10  C   UNL     1      83.104   4.402  24.832  0.00  0.00    +0.000 A 
ATOM     11  C   UNL     1      84.079   3.690  24.152  0.00  0.00    +0.000 A 
ATOM     12  C   UNL     1      85.311  -0.161  25.503  0.00  0.00    +0.000 C 
ENDROOT
BRANCH  10  15
ATOM     13  S   UNL     1      81.204   6.373  24.866  0.00  0.00    +0.000 S 
ATOM     14  N   UNL     1      82.671   7.768  23.258  0.00  0.00    +0.000 NA
ATOM     15  C   UNL     1      82.701   5.704  24.360  0.00  0.00    +0.000 A 
ATOM     16  C   UNL     1      83.339   6.586  23.513  0.00  0.00    +0.000 A 
ATOM     17  C   UNL     1      81.534   7.765  23.917  0.00  0.00    +0.000 A 
ENDBRANCH  10  15
BRANCH   3  18
ATOM     18  N   UNL     1      81.309   2.689  28.361  0.00  0.00    +0.000 N 
ATOM     19  H   UNL     1      80.347   2.622  28.054  0.00  0.00    +0.000 HD
BRANCH  18  20
ATOM     20  C   UNL     1      81.561   3.367  29.613  0.00  0.00    +0.000 C 
ATOM     21  C   UNL     1      81.267   2.417  30.777  0.00  0.00    +0.000 C 
ATOM     22  C   UNL     1      83.010   3.859  29.644  0.00  0.00    +0.000 C 
ATOM     23  C   UNL     1      83.061   3.546  32.151  0.00  0.00    +0.000 C 
ATOM     24  C   UNL     1      81.615   3.056  32.118  0.00  0.00    +0.000 C 
ATOM     25  C   UNL     1      83.356   4.493  30.988  0.00  0.00    +0.000 C 
BRANCH  23  26
ATOM     26  O   UNL     1      83.284   4.220  33.385  0.00  0.00    +0.000 OA
BRANCH  26  27
ATOM     27  C   UNL     1      83.808   3.340  34.369  0.00  0.00    +0.000 C 
BRANCH  27  28
ATOM     28  C   UNL     1      84.937   2.532  33.758  0.00  0.00    +0.000 C 
BRANCH  28  29
ATOM     29  O   UNL     1      84.743   1.156  34.066  0.00  0.00    +0.000 OA
ATOM     30  C   UNL     1      83.867   0.988  35.171  0.00  0.00    +0.000 C 
ENDBRANCH  28  29
ENDBRANCH  27  28
ENDBRANCH  26  27
ENDBRANCH  23  26
ENDBRANCH  18  20
ENDBRANCH   3  18
TORSDOF 7
ENDMDL
