MODEL 1
REMARK VINA RESULT:      -5.9      0.000      0.000
REMARK  Name = 155598690
REMARK  7 active torsions:
REMARK  status: ('A' for Active; 'I' for Inactive)
REMARK    1  A    between atoms: O_1  and  C_11
REMARK    2  A    between atoms: O_1  and  C_16
REMARK    3  A    between atoms: O_3  and  C_19
REMARK    4  A    between atoms: O_3  and  C_25
REMARK    5  A    between atoms: N_4  and  C_10
REMARK    6  A    between atoms: C_16  and  C_19
REMARK    7  A    between atoms: C_17  and  C_18
REMARK                            x       y       z     vdW  Elec       q    Type
REMARK                         _______ _______ _______ _____ _____    ______ ____
ROOT
ATOM      1  O   UNL     1      85.007  -1.129  23.615  0.00  0.00    +0.000 OA
ATOM      2  N   UNL     1      86.030   0.660  22.552  0.00  0.00    +0.000 N 
ATOM      3  C   UNL     1      85.314   0.059  23.576  0.00  0.00    +0.000 C 
ATOM      4  H   UNL     1      86.188   1.664  22.583  0.00  0.00    +0.000 HD
ENDROOT
BRANCH   3  10
ATOM      5  N   UNL     1      84.654   2.254  24.385  0.00  0.00    +0.000 NA
ATOM      6  N   UNL     1      84.856  -0.679  26.597  0.00  0.00    +0.000 N 
ATOM      7  N   UNL     1      84.064   2.751  26.693  0.00  0.00    +0.000 NA
ATOM      8  N   UNL     1      84.037   4.390  25.053  0.00  0.00    +0.000 N 
ATOM      9  N   UNL     1      83.511   6.536  25.274  0.00  0.00    +0.000 NA
ATOM     10  C   UNL     1      84.885   0.956  24.679  0.00  0.00    +0.000 A 
ATOM     11  C   UNL     1      84.709   0.539  25.986  0.00  0.00    +0.000 A 
ATOM     12  C   UNL     1      84.303   1.444  26.963  0.00  0.00    +0.000 A 
ATOM     13  C   UNL     1      84.263   3.061  25.396  0.00  0.00    +0.000 A 
ATOM     14  C   UNL     1      84.208   0.739  28.187  0.00  0.00    +0.000 A 
ATOM     15  C   UNL     1      84.555  -0.570  27.932  0.00  0.00    +0.000 A 
ATOM     16  C   UNL     1      84.171   4.938  23.809  0.00  0.00    +0.000 A 
ATOM     17  C   UNL     1      83.639   5.387  25.899  0.00  0.00    +0.000 A 
ATOM     18  C   UNL     1      83.841   6.263  23.971  0.00  0.00    +0.000 A 
ATOM     19  H   UNL     1      85.144  -1.533  26.137  0.00  0.00    +0.000 HD
ENDBRANCH   3  10
BRANCH   2  20
ATOM     20  C   UNL     1      86.494  -0.072  21.398  0.00  0.00    +0.000 C 
ATOM     21  C   UNL     1      87.236  -0.236  18.545  0.00  0.00    +0.000 C 
ATOM     22  C   UNL     1      85.426  -0.079  20.301  0.00  0.00    +0.000 C 
ATOM     23  C   UNL     1      87.819   0.504  20.889  0.00  0.00    +0.000 C 
ATOM     24  C   UNL     1      85.915  -0.809  19.053  0.00  0.00    +0.000 C 
ATOM     25  C   UNL     1      88.300  -0.228  19.640  0.00  0.00    +0.000 C 
BRANCH  21  26
ATOM     26  O   UNL     1      87.710  -1.019  17.455  0.00  0.00    +0.000 OA
BRANCH  26  27
ATOM     27  C   UNL     1      88.946  -0.528  16.959  0.00  0.00    +0.000 C 
BRANCH  27  28
ATOM     28  C   UNL     1      88.673   0.557  15.934  0.00  0.00    +0.000 C 
BRANCH  28  29
ATOM     29  O   UNL     1      89.912   1.043  15.432  0.00  0.00    +0.000 OA
ATOM     30  C   UNL     1      91.009   0.548  16.188  0.00  0.00    +0.000 C 
ENDBRANCH  28  29
ENDBRANCH  27  28
ENDBRANCH  26  27
ENDBRANCH  21  26
ENDBRANCH   2  20
TORSDOF 6
ENDMDL
MODEL 2
REMARK VINA RESULT:      -5.2      1.299      3.881
REMARK  Name = 155598690
REMARK  7 active torsions:
REMARK  status: ('A' for Active; 'I' for Inactive)
REMARK    1  A    between atoms: O_1  and  C_11
REMARK    2  A    between atoms: O_1  and  C_16
REMARK    3  A    between atoms: O_3  and  C_19
REMARK    4  A    between atoms: O_3  and  C_25
REMARK    5  A    between atoms: N_4  and  C_10
REMARK    6  A    between atoms: C_16  and  C_19
REMARK    7  A    between atoms: C_17  and  C_18
REMARK                            x       y       z     vdW  Elec       q    Type
REMARK                         _______ _______ _______ _____ _____    ______ ____
ROOT
ATOM      1  O   UNL     1      83.814   0.535  22.331  0.00  0.00    +0.000 OA
ATOM      2  N   UNL     1      86.105   0.663  22.665  0.00  0.00    +0.000 N 
ATOM      3  C   UNL     1      84.778   0.834  23.029  0.00  0.00    +0.000 C 
ATOM      4  H   UNL     1      86.835   0.992  23.291  0.00  0.00    +0.000 HD
ENDROOT
BRANCH   3  10
ATOM      5  N   UNL     1      84.620   0.648  25.448  0.00  0.00    +0.000 NA
ATOM      6  N   UNL     1      84.117   3.838  23.682  0.00  0.00    +0.000 N 
ATOM      7  N   UNL     1      84.125   2.505  26.941  0.00  0.00    +0.000 NA
ATOM      8  N   UNL     1      84.492   0.362  27.748  0.00  0.00    +0.000 N 
ATOM      9  N   UNL     1      84.459  -0.328  29.858  0.00  0.00    +0.000 NA
ATOM     10  C   UNL     1      84.546   1.448  24.362  0.00  0.00    +0.000 A 
ATOM     11  C   UNL     1      84.259   2.788  24.552  0.00  0.00    +0.000 A 
ATOM     12  C   UNL     1      84.055   3.286  25.836  0.00  0.00    +0.000 A 
ATOM     13  C   UNL     1      84.408   1.218  26.655  0.00  0.00    +0.000 A 
ATOM     14  C   UNL     1      83.785   4.671  25.719  0.00  0.00    +0.000 A 
ATOM     15  C   UNL     1      83.829   4.984  24.378  0.00  0.00    +0.000 A 
ATOM     16  C   UNL     1      84.766  -0.975  27.708  0.00  0.00    +0.000 A 
ATOM     17  C   UNL     1      84.316   0.706  29.059  0.00  0.00    +0.000 A 
ATOM     18  C   UNL     1      84.740  -1.379  29.022  0.00  0.00    +0.000 A 
ATOM     19  H   UNL     1      84.209   3.779  22.676  0.00  0.00    +0.000 HD
ENDBRANCH   3  10
BRANCH   2  20
ATOM     20  C   UNL     1      86.493   0.104  21.393  0.00  0.00    +0.000 C 
ATOM     21  C   UNL     1      88.273  -1.543  19.707  0.00  0.00    +0.000 C 
ATOM     22  C   UNL     1      87.885   0.599  20.991  0.00  0.00    +0.000 C 
ATOM     23  C   UNL     1      86.430  -1.426  21.432  0.00  0.00    +0.000 C 
ATOM     24  C   UNL     1      88.335  -0.017  19.669  0.00  0.00    +0.000 C 
ATOM     25  C   UNL     1      86.885  -2.035  20.109  0.00  0.00    +0.000 C 
BRANCH  21  26
ATOM     26  O   UNL     1      88.588  -2.067  18.422  0.00  0.00    +0.000 OA
BRANCH  26  27
ATOM     27  C   UNL     1      89.545  -1.259  17.752  0.00  0.00    +0.000 C 
BRANCH  27  28
ATOM     28  C   UNL     1      89.092  -1.039  16.321  0.00  0.00    +0.000 C 
BRANCH  28  29
ATOM     29  O   UNL     1      89.345   0.312  15.957  0.00  0.00    +0.000 OA
ATOM     30  C   UNL     1      90.708   0.659  16.162  0.00  0.00    +0.000 C 
ENDBRANCH  28  29
ENDBRANCH  27  28
ENDBRANCH  26  27
ENDBRANCH  21  26
ENDBRANCH   2  20
TORSDOF 6
ENDMDL
MODEL 3
REMARK VINA RESULT:      -5.2      1.606      1.942
REMARK  Name = 155598690
REMARK  7 active torsions:
REMARK  status: ('A' for Active; 'I' for Inactive)
REMARK    1  A    between atoms: O_1  and  C_11
REMARK    2  A    between atoms: O_1  and  C_16
REMARK    3  A    between atoms: O_3  and  C_19
REMARK    4  A    between atoms: O_3  and  C_25
REMARK    5  A    between atoms: N_4  and  C_10
REMARK    6  A    between atoms: C_16  and  C_19
REMARK    7  A    between atoms: C_17  and  C_18
REMARK                            x       y       z     vdW  Elec       q    Type
REMARK                         _______ _______ _______ _____ _____    ______ ____
ROOT
ATOM      1  O   UNL     1      84.147  -0.240  22.094  0.00  0.00    +0.000 OA
ATOM      2  N   UNL     1      86.414   0.242  22.172  0.00  0.00    +0.000 N 
ATOM      3  C   UNL     1      85.116   0.260  22.658  0.00  0.00    +0.000 C 
ATOM      4  H   UNL     1      87.141   0.731  22.687  0.00  0.00    +0.000 HD
ENDROOT
BRANCH   3  10
ATOM      5  N   UNL     1      84.617   2.281  23.913  0.00  0.00    +0.000 NA
ATOM      6  N   UNL     1      85.309  -0.936  25.560  0.00  0.00    +0.000 N 
ATOM      7  N   UNL     1      84.519   2.406  26.341  0.00  0.00    +0.000 NA
ATOM      8  N   UNL     1      84.131   4.266  25.013  0.00  0.00    +0.000 N 
ATOM      9  N   UNL     1      83.641   6.332  25.664  0.00  0.00    +0.000 NA
ATOM     10  C   UNL     1      84.918   0.965  23.951  0.00  0.00    +0.000 A 
ATOM     11  C   UNL     1      85.024   0.352  25.186  0.00  0.00    +0.000 A 
ATOM     12  C   UNL     1      84.823   1.084  26.352  0.00  0.00    +0.000 A 
ATOM     13  C   UNL     1      84.438   2.913  25.094  0.00  0.00    +0.000 A 
ATOM     14  C   UNL     1      84.994   0.203  27.447  0.00  0.00    +0.000 A 
ATOM     15  C   UNL     1      85.294  -1.038  26.928  0.00  0.00    +0.000 A 
ATOM     16  C   UNL     1      83.995   4.998  23.867  0.00  0.00    +0.000 A 
ATOM     17  C   UNL     1      83.909   5.109  26.066  0.00  0.00    +0.000 A 
ATOM     18  C   UNL     1      83.693   6.269  24.295  0.00  0.00    +0.000 A 
ATOM     19  H   UNL     1      85.503  -1.699  24.924  0.00  0.00    +0.000 HD
ENDBRANCH   3  10
BRANCH   2  20
ATOM     20  C   UNL     1      86.763  -0.381  20.918  0.00  0.00    +0.000 C 
ATOM     21  C   UNL     1      88.524  -2.062  19.248  0.00  0.00    +0.000 C 
ATOM     22  C   UNL     1      88.112   0.140  20.417  0.00  0.00    +0.000 C 
ATOM     23  C   UNL     1      86.764  -1.907  21.053  0.00  0.00    +0.000 C 
ATOM     24  C   UNL     1      88.523  -0.541  19.114  0.00  0.00    +0.000 C 
ATOM     25  C   UNL     1      87.178  -2.580  19.748  0.00  0.00    +0.000 C 
BRANCH  21  26
ATOM     26  O   UNL     1      88.798  -2.654  17.982  0.00  0.00    +0.000 OA
BRANCH  26  27
ATOM     27  C   UNL     1      89.656  -3.778  18.108  0.00  0.00    +0.000 C 
BRANCH  27  28
ATOM     28  C   UNL     1      90.974  -3.475  17.422  0.00  0.00    +0.000 C 
BRANCH  28  29
ATOM     29  O   UNL     1      90.792  -2.382  16.530  0.00  0.00    +0.000 OA
ATOM     30  C   UNL     1      91.738  -1.349  16.774  0.00  0.00    +0.000 C 
ENDBRANCH  28  29
ENDBRANCH  27  28
ENDBRANCH  26  27
ENDBRANCH  21  26
ENDBRANCH   2  20
TORSDOF 6
ENDMDL
MODEL 4
REMARK VINA RESULT:      -5.1      3.380      9.687
REMARK  Name = 155598690
REMARK  7 active torsions:
REMARK  status: ('A' for Active; 'I' for Inactive)
REMARK    1  A    between atoms: O_1  and  C_11
REMARK    2  A    between atoms: O_1  and  C_16
REMARK    3  A    between atoms: O_3  and  C_19
REMARK    4  A    between atoms: O_3  and  C_25
REMARK    5  A    between atoms: N_4  and  C_10
REMARK    6  A    between atoms: C_16  and  C_19
REMARK    7  A    between atoms: C_17  and  C_18
REMARK                            x       y       z     vdW  Elec       q    Type
REMARK                         _______ _______ _______ _____ _____    ______ ____
ROOT
ATOM      1  O   UNL     1      84.538  -0.091  20.152  0.00  0.00    +0.000 OA
ATOM      2  N   UNL     1      86.101  -0.140  21.864  0.00  0.00    +0.000 N 
ATOM      3  C   UNL     1      85.692  -0.242  20.544  0.00  0.00    +0.000 C 
ATOM      4  H   UNL     1      87.072  -0.335  22.097  0.00  0.00    +0.000 HD
ENDROOT
BRANCH   3  10
ATOM      5  N   UNL     1      87.574  -1.614  19.849  0.00  0.00    +0.000 NA
ATOM      6  N   UNL     1      86.304   1.166  17.800  0.00  0.00    +0.000 N 
ATOM      7  N   UNL     1      88.803  -1.315  17.769  0.00  0.00    +0.000 NA
ATOM      8  N   UNL     1      89.360  -2.984  19.281  0.00  0.00    +0.000 N 
ATOM      9  N   UNL     1      90.986  -4.487  19.117  0.00  0.00    +0.000 NA
ATOM     10  C   UNL     1      86.753  -0.581  19.561  0.00  0.00    +0.000 A 
ATOM     11  C   UNL     1      86.948   0.100  18.373  0.00  0.00    +0.000 A 
ATOM     12  C   UNL     1      87.966  -0.282  17.504  0.00  0.00    +0.000 A 
ATOM     13  C   UNL     1      88.536  -1.914  18.948  0.00  0.00    +0.000 A 
ATOM     14  C   UNL     1      87.922   0.585  16.385  0.00  0.00    +0.000 A 
ATOM     15  C   UNL     1      86.886   1.469  16.595  0.00  0.00    +0.000 A 
ATOM     16  C   UNL     1      89.284  -3.741  20.414  0.00  0.00    +0.000 A 
ATOM     17  C   UNL     1      90.396  -3.469  18.532  0.00  0.00    +0.000 A 
ATOM     18  C   UNL     1      90.297  -4.663  20.291  0.00  0.00    +0.000 A 
ATOM     19  H   UNL     1      85.517   1.658  18.203  0.00  0.00    +0.000 HD
ENDBRANCH   3  10
BRANCH   2  20
ATOM     20  C   UNL     1      85.185   0.158  22.939  0.00  0.00    +0.000 C 
ATOM     21  C   UNL     1      84.488   0.286  25.805  0.00  0.00    +0.000 C 
ATOM     22  C   UNL     1      84.858  -1.110  23.732  0.00  0.00    +0.000 C 
ATOM     23  C   UNL     1      85.750   1.256  23.843  0.00  0.00    +0.000 C 
ATOM     24  C   UNL     1      83.925  -0.810  24.902  0.00  0.00    +0.000 C 
ATOM     25  C   UNL     1      84.814   1.549  25.013  0.00  0.00    +0.000 C 
BRANCH  21  26
ATOM     26  O   UNL     1      83.536   0.612  26.811  0.00  0.00    +0.000 OA
BRANCH  26  27
ATOM     27  C   UNL     1      83.871   1.823  27.473  0.00  0.00    +0.000 C 
BRANCH  27  28
ATOM     28  C   UNL     1      82.603   2.614  27.731  0.00  0.00    +0.000 C 
BRANCH  28  29
ATOM     29  O   UNL     1      82.659   3.832  26.998  0.00  0.00    +0.000 OA
ATOM     30  C   UNL     1      83.915   4.478  27.157  0.00  0.00    +0.000 C 
ENDBRANCH  28  29
ENDBRANCH  27  28
ENDBRANCH  26  27
ENDBRANCH  21  26
ENDBRANCH   2  20
TORSDOF 6
ENDMDL
MODEL 5
REMARK VINA RESULT:      -5.0     14.353     15.684
REMARK  Name = 155598690
REMARK  7 active torsions:
REMARK  status: ('A' for Active; 'I' for Inactive)
REMARK    1  A    between atoms: O_1  and  C_11
REMARK    2  A    between atoms: O_1  and  C_16
REMARK    3  A    between atoms: O_3  and  C_19
REMARK    4  A    between atoms: O_3  and  C_25
REMARK    5  A    between atoms: N_4  and  C_10
REMARK    6  A    between atoms: C_16  and  C_19
REMARK    7  A    between atoms: C_17  and  C_18
REMARK                            x       y       z     vdW  Elec       q    Type
REMARK                         _______ _______ _______ _____ _____    ______ ____
ROOT
ATOM      1  O   UNL     1     101.360   2.564  26.943  0.00  0.00    +0.000 OA
ATOM      2  N   UNL     1      99.413   1.832  27.967  0.00  0.00    +0.000 N 
ATOM      3  C   UNL     1     100.253   2.791  27.422  0.00  0.00    +0.000 C 
ATOM      4  H   UNL     1      98.536   2.126  28.389  0.00  0.00    +0.000 HD
ENDROOT
BRANCH   3  10
ATOM      5  N   UNL     1      98.434   4.380  27.695  0.00  0.00    +0.000 NA
ATOM      6  N   UNL     1     101.889   5.443  27.008  0.00  0.00    +0.000 N 
ATOM      7  N   UNL     1      98.684   6.797  27.551  0.00  0.00    +0.000 NA
ATOM      8  N   UNL     1      96.627   5.811  27.973  0.00  0.00    +0.000 N 
ATOM      9  N   UNL     1      94.672   6.813  28.295  0.00  0.00    +0.000 NA
ATOM     10  C   UNL     1      99.750   4.188  27.458  0.00  0.00    +0.000 A 
ATOM     11  C   UNL     1     100.550   5.300  27.263  0.00  0.00    +0.000 A 
ATOM     12  C   UNL     1     100.000   6.577  27.314  0.00  0.00    +0.000 A 
ATOM     13  C   UNL     1      97.987   5.655  27.727  0.00  0.00    +0.000 A 
ATOM     14  C   UNL     1     101.047   7.503  27.082  0.00  0.00    +0.000 A 
ATOM     15  C   UNL     1     102.201   6.775  26.896  0.00  0.00    +0.000 A 
ATOM     16  C   UNL     1      95.724   4.809  28.183  0.00  0.00    +0.000 A 
ATOM     17  C   UNL     1      95.951   6.996  28.050  0.00  0.00    +0.000 A 
ATOM     18  C   UNL     1      94.524   5.452  28.379  0.00  0.00    +0.000 A 
ATOM     19  H   UNL     1     102.551   4.683  26.915  0.00  0.00    +0.000 HD
ENDBRANCH   3  10
BRANCH   2  20
ATOM     20  C   UNL     1      99.770   0.435  28.030  0.00  0.00    +0.000 C 
ATOM     21  C   UNL     1      99.615  -2.238  29.274  0.00  0.00    +0.000 C 
ATOM     22  C   UNL     1     100.504   0.126  29.337  0.00  0.00    +0.000 C 
ATOM     23  C   UNL     1      98.531  -0.448  27.859  0.00  0.00    +0.000 C 
ATOM     24  C   UNL     1     100.850  -1.356  29.445  0.00  0.00    +0.000 C 
ATOM     25  C   UNL     1      98.884  -1.929  27.970  0.00  0.00    +0.000 C 
BRANCH  21  26
ATOM     26  O   UNL     1     100.003  -3.608  29.266  0.00  0.00    +0.000 OA
BRANCH  26  27
ATOM     27  C   UNL     1      99.452  -4.311  30.370  0.00  0.00    +0.000 C 
BRANCH  27  28
ATOM     28  C   UNL     1      98.149  -4.960  29.944  0.00  0.00    +0.000 C 
BRANCH  28  29
ATOM     29  O   UNL     1      97.078  -4.369  30.671  0.00  0.00    +0.000 OA
ATOM     30  C   UNL     1      96.139  -3.749  29.803  0.00  0.00    +0.000 C 
ENDBRANCH  28  29
ENDBRANCH  27  28
ENDBRANCH  26  27
ENDBRANCH  21  26
ENDBRANCH   2  20
TORSDOF 6
ENDMDL
MODEL 6
REMARK VINA RESULT:      -4.9     13.988     15.153
REMARK  Name = 155598690
REMARK  7 active torsions:
REMARK  status: ('A' for Active; 'I' for Inactive)
REMARK    1  A    between atoms: O_1  and  C_11
REMARK    2  A    between atoms: O_1  and  C_16
REMARK    3  A    between atoms: O_3  and  C_19
REMARK    4  A    between atoms: O_3  and  C_25
REMARK    5  A    between atoms: N_4  and  C_10
REMARK    6  A    between atoms: C_16  and  C_19
REMARK    7  A    between atoms: C_17  and  C_18
REMARK                            x       y       z     vdW  Elec       q    Type
REMARK                         _______ _______ _______ _____ _____    ______ ____
ROOT
ATOM      1  O   UNL     1      97.953   1.004  26.254  0.00  0.00    +0.000 OA
ATOM      2  N   UNL     1      99.537   0.854  27.941  0.00  0.00    +0.000 N 
ATOM      3  C   UNL     1      98.730   1.535  27.043  0.00  0.00    +0.000 C 
ATOM      4  H   UNL     1     100.189   1.381  28.517  0.00  0.00    +0.000 HD
ENDROOT
BRANCH   3  10
ATOM      5  N   UNL     1      97.787   3.741  27.435  0.00  0.00    +0.000 NA
ATOM      6  N   UNL     1     101.239   3.258  26.253  0.00  0.00    +0.000 N 
ATOM      7  N   UNL     1      98.989   5.831  27.101  0.00  0.00    +0.000 NA
ATOM      8  N   UNL     1      96.791   5.798  27.841  0.00  0.00    +0.000 N 
ATOM      9  N   UNL     1      95.490   7.527  28.337  0.00  0.00    +0.000 NA
ATOM     10  C   UNL     1      98.859   3.015  27.049  0.00  0.00    +0.000 A 
ATOM     11  C   UNL     1     100.010   3.689  26.683  0.00  0.00    +0.000 A 
ATOM     12  C   UNL     1     100.050   5.079  26.717  0.00  0.00    +0.000 A 
ATOM     13  C   UNL     1      97.916   5.086  27.438  0.00  0.00    +0.000 A 
ATOM     14  C   UNL     1     101.340   5.481  26.295  0.00  0.00    +0.000 A 
ATOM     15  C   UNL     1     102.053   4.336  26.015  0.00  0.00    +0.000 A 
ATOM     16  C   UNL     1      95.594   5.267  28.228  0.00  0.00    +0.000 A 
ATOM     17  C   UNL     1      96.682   7.157  27.923  0.00  0.00    +0.000 A 
ATOM     18  C   UNL     1      94.807   6.353  28.529  0.00  0.00    +0.000 A 
ATOM     19  H   UNL     1     101.508   2.290  26.128  0.00  0.00    +0.000 HD
ENDBRANCH   3  10
BRANCH   2  20
ATOM     20  C   UNL     1      99.546  -0.586  28.037  0.00  0.00    +0.000 C 
ATOM     21  C   UNL     1      99.976  -3.092  29.539  0.00  0.00    +0.000 C 
ATOM     22  C   UNL     1     100.957  -1.095  28.340  0.00  0.00    +0.000 C 
ATOM     23  C   UNL     1      98.538  -1.064  29.087  0.00  0.00    +0.000 C 
ATOM     24  C   UNL     1     100.980  -2.614  28.493  0.00  0.00    +0.000 C 
ATOM     25  C   UNL     1      98.569  -2.582  29.236  0.00  0.00    +0.000 C 
BRANCH  21  26
ATOM     26  O   UNL     1      99.950  -4.514  29.563  0.00  0.00    +0.000 OA
BRANCH  26  27
ATOM     27  C   UNL     1      98.757  -5.023  28.986  0.00  0.00    +0.000 C 
BRANCH  27  28
ATOM     28  C   UNL     1      99.093  -5.700  27.670  0.00  0.00    +0.000 C 
BRANCH  28  29
ATOM     29  O   UNL     1      97.946  -5.672  26.829  0.00  0.00    +0.000 OA
ATOM     30  C   UNL     1      98.305  -5.489  25.466  0.00  0.00    +0.000 C 
ENDBRANCH  28  29
ENDBRANCH  27  28
ENDBRANCH  26  27
ENDBRANCH  21  26
ENDBRANCH   2  20
TORSDOF 6
ENDMDL
MODEL 7
REMARK VINA RESULT:      -4.9     14.944     16.014
REMARK  Name = 155598690
REMARK  7 active torsions:
REMARK  status: ('A' for Active; 'I' for Inactive)
REMARK    1  A    between atoms: O_1  and  C_11
REMARK    2  A    between atoms: O_1  and  C_16
REMARK    3  A    between atoms: O_3  and  C_19
REMARK    4  A    between atoms: O_3  and  C_25
REMARK    5  A    between atoms: N_4  and  C_10
REMARK    6  A    between atoms: C_16  and  C_19
REMARK    7  A    between atoms: C_17  and  C_18
REMARK                            x       y       z     vdW  Elec       q    Type
REMARK                         _______ _______ _______ _____ _____    ______ ____
ROOT
ATOM      1  O   UNL     1      98.675   2.111  26.053  0.00  0.00    +0.000 OA
ATOM      2  N   UNL     1      99.839   1.537  27.974  0.00  0.00    +0.000 N 
ATOM      3  C   UNL     1      99.249   2.427  27.091  0.00  0.00    +0.000 C 
ATOM      4  H   UNL     1     100.339   1.900  28.782  0.00  0.00    +0.000 HD
ENDROOT
BRANCH   3  10
ATOM      5  N   UNL     1     100.091   4.189  28.539  0.00  0.00    +0.000 NA
ATOM      6  N   UNL     1      97.966   4.890  25.618  0.00  0.00    +0.000 N 
ATOM      7  N   UNL     1      99.638   6.560  28.228  0.00  0.00    +0.000 NA
ATOM      8  N   UNL     1     100.947   5.793  29.982  0.00  0.00    +0.000 N 
ATOM      9  N   UNL     1     101.942   6.987  31.568  0.00  0.00    +0.000 NA
ATOM     10  C   UNL     1      99.359   3.865  27.451  0.00  0.00    +0.000 A 
ATOM     11  C   UNL     1      98.755   4.885  26.739  0.00  0.00    +0.000 A 
ATOM     12  C   UNL     1      98.908   6.208  27.142  0.00  0.00    +0.000 A 
ATOM     13  C   UNL     1     100.185   5.500  28.856  0.00  0.00    +0.000 A 
ATOM     14  C   UNL     1      98.187   7.019  26.232  0.00  0.00    +0.000 A 
ATOM     15  C   UNL     1      97.616   6.179  25.301  0.00  0.00    +0.000 A 
ATOM     16  C   UNL     1     101.596   4.892  30.777  0.00  0.00    +0.000 A 
ATOM     17  C   UNL     1     101.184   7.038  30.495  0.00  0.00    +0.000 A 
ATOM     18  C   UNL     1     102.203   5.652  31.748  0.00  0.00    +0.000 A 
ATOM     19  H   UNL     1      97.681   4.069  25.099  0.00  0.00    +0.000 HD
ENDBRANCH   3  10
BRANCH   2  20
ATOM     20  C   UNL     1      99.840   0.111  27.751  0.00  0.00    +0.000 C 
ATOM     21  C   UNL     1      99.729  -2.676  28.723  0.00  0.00    +0.000 C 
ATOM     22  C   UNL     1     101.047  -0.539  28.433  0.00  0.00    +0.000 C 
ATOM     23  C   UNL     1      98.523  -0.512  28.227  0.00  0.00    +0.000 C 
ATOM     24  C   UNL     1     101.041  -2.054  28.249  0.00  0.00    +0.000 C 
ATOM     25  C   UNL     1      98.527  -2.026  28.043  0.00  0.00    +0.000 C 
BRANCH  21  26
ATOM     26  O   UNL     1      99.725  -4.068  28.425  0.00  0.00    +0.000 OA
BRANCH  26  27
ATOM     27  C   UNL     1     100.442  -4.347  27.232  0.00  0.00    +0.000 C 
BRANCH  27  28
ATOM     28  C   UNL     1      99.719  -5.436  26.463  0.00  0.00    +0.000 C 
BRANCH  28  29
ATOM     29  O   UNL     1      98.442  -4.953  26.065  0.00  0.00    +0.000 OA
ATOM     30  C   UNL     1      97.984  -5.602  24.887  0.00  0.00    +0.000 C 
ENDBRANCH  28  29
ENDBRANCH  27  28
ENDBRANCH  26  27
ENDBRANCH  21  26
ENDBRANCH   2  20
TORSDOF 6
ENDMDL
MODEL 8
REMARK VINA RESULT:      -4.7     14.177     15.654
REMARK  Name = 155598690
REMARK  7 active torsions:
REMARK  status: ('A' for Active; 'I' for Inactive)
REMARK    1  A    between atoms: O_1  and  C_11
REMARK    2  A    between atoms: O_1  and  C_16
REMARK    3  A    between atoms: O_3  and  C_19
REMARK    4  A    between atoms: O_3  and  C_25
REMARK    5  A    between atoms: N_4  and  C_10
REMARK    6  A    between atoms: C_16  and  C_19
REMARK    7  A    between atoms: C_17  and  C_18
REMARK                            x       y       z     vdW  Elec       q    Type
REMARK                         _______ _______ _______ _____ _____    ______ ____
ROOT
ATOM      1  O   UNL     1      97.622   0.799  26.316  0.00  0.00    +0.000 OA
ATOM      2  N   UNL     1      99.287   0.546  27.910  0.00  0.00    +0.000 N 
ATOM      3  C   UNL     1      98.465   1.279  27.069  0.00  0.00    +0.000 C 
ATOM      4  H   UNL     1      99.993   1.031  28.457  0.00  0.00    +0.000 HD
ENDROOT
BRANCH   3  10
ATOM      5  N   UNL     1      97.618   3.524  27.460  0.00  0.00    +0.000 NA
ATOM      6  N   UNL     1     101.069   2.888  26.352  0.00  0.00    +0.000 N 
ATOM      7  N   UNL     1      98.924   5.557  27.173  0.00  0.00    +0.000 NA
ATOM      8  N   UNL     1      96.710   5.622  27.862  0.00  0.00    +0.000 N 
ATOM      9  N   UNL     1      95.481   7.407  28.345  0.00  0.00    +0.000 NA
ATOM     10  C   UNL     1      98.663   2.751  27.092  0.00  0.00    +0.000 A 
ATOM     11  C   UNL     1      99.852   3.373  26.758  0.00  0.00    +0.000 A 
ATOM     12  C   UNL     1      99.956   4.760  26.806  0.00  0.00    +0.000 A 
ATOM     13  C   UNL     1      97.809   4.862  27.478  0.00  0.00    +0.000 A 
ATOM     14  C   UNL     1     101.274   5.104  26.417  0.00  0.00    +0.000 A 
ATOM     15  C   UNL     1     101.938   3.929  26.142  0.00  0.00    +0.000 A 
ATOM     16  C   UNL     1      95.481   5.145  28.217  0.00  0.00    +0.000 A 
ATOM     17  C   UNL     1      96.663   6.985  27.955  0.00  0.00    +0.000 A 
ATOM     18  C   UNL     1      94.739   6.265  28.510  0.00  0.00    +0.000 A 
ATOM     19  H   UNL     1     101.295   1.910  26.225  0.00  0.00    +0.000 HD
ENDBRANCH   3  10
BRANCH   2  20
ATOM     20  C   UNL     1      99.233  -0.895  27.982  0.00  0.00    +0.000 C 
ATOM     21  C   UNL     1      99.623  -3.445  29.419  0.00  0.00    +0.000 C 
ATOM     22  C   UNL     1     100.633  -1.474  28.203  0.00  0.00    +0.000 C 
ATOM     23  C   UNL     1      98.261  -1.345  29.076  0.00  0.00    +0.000 C 
ATOM     24  C   UNL     1     100.594  -2.994  28.329  0.00  0.00    +0.000 C 
ATOM     25  C   UNL     1      98.228  -2.866  29.199  0.00  0.00    +0.000 C 
BRANCH  21  26
ATOM     26  O   UNL     1      99.533  -4.865  29.421  0.00  0.00    +0.000 OA
BRANCH  26  27
ATOM     27  C   UNL     1     100.017  -5.416  30.638  0.00  0.00    +0.000 C 
BRANCH  27  28
ATOM     28  C   UNL     1      98.845  -5.679  31.563  0.00  0.00    +0.000 C 
BRANCH  28  29
ATOM     29  O   UNL     1      98.912  -4.780  32.664  0.00  0.00    +0.000 OA
ATOM     30  C   UNL     1      98.778  -5.463  33.903  0.00  0.00    +0.000 C 
ENDBRANCH  28  29
ENDBRANCH  27  28
ENDBRANCH  26  27
ENDBRANCH  21  26
ENDBRANCH   2  20
TORSDOF 6
ENDMDL
MODEL 9
REMARK VINA RESULT:      -4.5      3.421      9.426
REMARK  Name = 155598690
REMARK  7 active torsions:
REMARK  status: ('A' for Active; 'I' for Inactive)
REMARK    1  A    between atoms: O_1  and  C_11
REMARK    2  A    between atoms: O_1  and  C_16
REMARK    3  A    between atoms: O_3  and  C_19
REMARK    4  A    between atoms: O_3  and  C_25
REMARK    5  A    between atoms: N_4  and  C_10
REMARK    6  A    between atoms: C_16  and  C_19
REMARK    7  A    between atoms: C_17  and  C_18
REMARK                            x       y       z     vdW  Elec       q    Type
REMARK                         _______ _______ _______ _____ _____    ______ ____
ROOT
ATOM      1  O   UNL     1      86.304  -1.691  20.832  0.00  0.00    +0.000 OA
ATOM      2  N   UNL     1      85.084   0.270  21.037  0.00  0.00    +0.000 N 
ATOM      3  C   UNL     1      85.852  -0.657  20.349  0.00  0.00    +0.000 C 
ATOM      4  H   UNL     1      84.801   1.124  20.565  0.00  0.00    +0.000 HD
ENDROOT
BRANCH   3  10
ATOM      5  N   UNL     1      87.437  -0.349  18.532  0.00  0.00    +0.000 NA
ATOM      6  N   UNL     1      83.813   0.103  18.079  0.00  0.00    +0.000 N 
ATOM      7  N   UNL     1      86.824   0.277  16.262  0.00  0.00    +0.000 NA
ATOM      8  N   UNL     1      89.034  -0.080  16.869  0.00  0.00    +0.000 N 
ATOM      9  N   UNL     1      90.844   0.074  15.592  0.00  0.00    +0.000 NA
ATOM     10  C   UNL     1      86.147  -0.329  18.931  0.00  0.00    +0.000 A 
ATOM     11  C   UNL     1      85.178  -0.004  17.998  0.00  0.00    +0.000 A 
ATOM     12  C   UNL     1      85.537   0.291  16.687  0.00  0.00    +0.000 A 
ATOM     13  C   UNL     1      87.694  -0.049  17.240  0.00  0.00    +0.000 A 
ATOM     14  C   UNL     1      84.350   0.580  15.972  0.00  0.00    +0.000 A 
ATOM     15  C   UNL     1      83.301   0.457  16.857  0.00  0.00    +0.000 A 
ATOM     16  C   UNL     1      90.091  -0.382  17.680  0.00  0.00    +0.000 A 
ATOM     17  C   UNL     1      89.535   0.186  15.626  0.00  0.00    +0.000 A 
ATOM     18  C   UNL     1      91.197  -0.280  16.870  0.00  0.00    +0.000 A 
ATOM     19  H   UNL     1      83.264  -0.055  18.914  0.00  0.00    +0.000 HD
ENDBRANCH   3  10
BRANCH   2  20
ATOM     20  C   UNL     1      84.735   0.106  22.428  0.00  0.00    +0.000 C 
ATOM     21  C   UNL     1      83.894   1.185  25.045  0.00  0.00    +0.000 C 
ATOM     22  C   UNL     1      85.715   0.871  23.321  0.00  0.00    +0.000 C 
ATOM     23  C   UNL     1      83.289   0.543  22.677  0.00  0.00    +0.000 C 
ATOM     24  C   UNL     1      85.336   0.750  24.795  0.00  0.00    +0.000 C 
ATOM     25  C   UNL     1      82.918   0.422  24.153  0.00  0.00    +0.000 C 
BRANCH  21  26
ATOM     26  O   UNL     1      83.551   0.946  26.405  0.00  0.00    +0.000 OA
BRANCH  26  27
ATOM     27  C   UNL     1      82.631   1.914  26.888  0.00  0.00    +0.000 C 
BRANCH  27  28
ATOM     28  C   UNL     1      83.388   3.171  27.269  0.00  0.00    +0.000 C 
BRANCH  28  29
ATOM     29  O   UNL     1      83.197   4.152  26.256  0.00  0.00    +0.000 OA
ATOM     30  C   UNL     1      84.204   5.154  26.305  0.00  0.00    +0.000 C 
ENDBRANCH  28  29
ENDBRANCH  27  28
ENDBRANCH  26  27
ENDBRANCH  21  26
ENDBRANCH   2  20
TORSDOF 6
ENDMDL
