MODEL 1
REMARK VINA RESULT:      -5.6      0.000      0.000
REMARK  Name = 168679856
REMARK  8 active torsions:
REMARK  status: ('A' for Active; 'I' for Inactive)
REMARK    1  A    between atoms: O_4  and  C_23
REMARK    2  A    between atoms: O_4  and  C_28
REMARK    3  A    between atoms: O_5  and  C_24
REMARK    4  A    between atoms: O_5  and  C_29
REMARK    5  A    between atoms: N_10  and  C_19
REMARK    6  A    between atoms: C_14  and  C_18
REMARK    7  A    between atoms: C_16  and  C_20
REMARK    8  A    between atoms: C_23  and  C_24
REMARK                            x       y       z     vdW  Elec       q    Type
REMARK                         _______ _______ _______ _____ _____    ______ ____
ROOT
ATOM      1  N   UNL     1      84.291   3.660  25.122  0.00  0.00    +0.000 N 
ATOM      2  N   UNL     1      84.906   1.784  23.891  0.00  0.00    +0.000 NA
ATOM      3  N   UNL     1      84.688   1.687  26.289  0.00  0.00    +0.000 NA
ATOM      4  N   UNL     1      83.692   5.641  25.927  0.00  0.00    +0.000 NA
ATOM      5  C   UNL     1      85.247   0.479  23.906  0.00  0.00    +0.000 A 
ATOM      6  C   UNL     1      84.644   2.316  25.100  0.00  0.00    +0.000 A 
ATOM      7  C   UNL     1      85.035   0.384  26.230  0.00  0.00    +0.000 A 
ATOM      8  C   UNL     1      85.328  -0.279  25.056  0.00  0.00    +0.000 A 
ATOM      9  C   UNL     1      84.186   4.487  24.040  0.00  0.00    +0.000 A 
ATOM     10  C   UNL     1      83.986   4.397  26.232  0.00  0.00    +0.000 A 
ATOM     11  C   UNL     1      83.815   5.704  24.561  0.00  0.00    +0.000 A 
ENDROOT
BRANCH   7  15
ATOM     12  F   UNL     1      84.317  -1.474  27.551  0.00  0.00    +0.000 F 
ATOM     13  F   UNL     1      86.357  -0.775  27.831  0.00  0.00    +0.000 F 
ATOM     14  F   UNL     1      84.689   0.389  28.599  0.00  0.00    +0.000 F 
ATOM     15  C   UNL     1      85.096  -0.353  27.527  0.00  0.00    +0.000 C 
ENDBRANCH   7  15
BRANCH   5  18
ATOM     16  O   UNL     1      84.873  -1.098  22.237  0.00  0.00    +0.000 OA
ATOM     17  N   UNL     1      86.557   0.497  21.840  0.00  0.00    +0.000 N 
ATOM     18  C   UNL     1      85.541  -0.129  22.582  0.00  0.00    +0.000 C 
ATOM     19  H   UNL     1      87.011   1.296  22.276  0.00  0.00    +0.000 HD
BRANCH  17  22
ATOM     20  N   UNL     1      88.806  -0.582  19.139  0.00  0.00    +0.000 NA
ATOM     21  N   UNL     1      86.640  -0.080  18.210  0.00  0.00    +0.000 NA
ATOM     22  C   UNL     1      87.024   0.166  20.573  0.00  0.00    +0.000 A 
ATOM     23  C   UNL     1      88.320  -0.253  20.355  0.00  0.00    +0.000 A 
ATOM     24  C   UNL     1      86.221   0.233  19.453  0.00  0.00    +0.000 A 
ATOM     25  C   UNL     1      87.925  -0.475  18.126  0.00  0.00    +0.000 A 
BRANCH  25  26
ATOM     26  O   UNL     1      88.386  -0.804  16.873  0.00  0.00    +0.000 OA
BRANCH  26  27
ATOM     27  C   UNL     1      89.077   0.216  16.164  0.00  0.00    +0.000 C 
BRANCH  27  28
ATOM     28  C   UNL     1      90.391  -0.343  15.651  0.00  0.00    +0.000 C 
BRANCH  28  29
ATOM     29  O   UNL     1      91.332  -0.369  16.716  0.00  0.00    +0.000 OA
ATOM     30  C   UNL     1      91.764  -1.693  16.996  0.00  0.00    +0.000 C 
ENDBRANCH  28  29
ENDBRANCH  27  28
ENDBRANCH  26  27
ENDBRANCH  25  26
ENDBRANCH  17  22
ENDBRANCH   5  18
TORSDOF 7
ENDMDL
MODEL 2
REMARK VINA RESULT:      -5.6      2.146      3.774
REMARK  Name = 168679856
REMARK  8 active torsions:
REMARK  status: ('A' for Active; 'I' for Inactive)
REMARK    1  A    between atoms: O_4  and  C_23
REMARK    2  A    between atoms: O_4  and  C_28
REMARK    3  A    between atoms: O_5  and  C_24
REMARK    4  A    between atoms: O_5  and  C_29
REMARK    5  A    between atoms: N_10  and  C_19
REMARK    6  A    between atoms: C_14  and  C_18
REMARK    7  A    between atoms: C_16  and  C_20
REMARK    8  A    between atoms: C_23  and  C_24
REMARK                            x       y       z     vdW  Elec       q    Type
REMARK                         _______ _______ _______ _____ _____    ______ ____
ROOT
ATOM      1  N   UNL     1      85.015  -0.360  27.370  0.00  0.00    +0.000 N 
ATOM      2  N   UNL     1      85.351  -0.255  25.070  0.00  0.00    +0.000 NA
ATOM      3  N   UNL     1      84.529   1.648  26.301  0.00  0.00    +0.000 NA
ATOM      4  N   UNL     1      84.829  -0.853  29.528  0.00  0.00    +0.000 NA
ATOM      5  C   UNL     1      85.286   0.490  23.947  0.00  0.00    +0.000 A 
ATOM      6  C   UNL     1      84.963   0.378  26.194  0.00  0.00    +0.000 A 
ATOM      7  C   UNL     1      84.490   2.334  25.139  0.00  0.00    +0.000 A 
ATOM      8  C   UNL     1      84.861   1.802  23.921  0.00  0.00    +0.000 A 
ATOM      9  C   UNL     1      85.420  -1.659  27.494  0.00  0.00    +0.000 A 
ATOM     10  C   UNL     1      84.670   0.081  28.617  0.00  0.00    +0.000 A 
ATOM     11  C   UNL     1      85.297  -1.941  28.833  0.00  0.00    +0.000 A 
ENDROOT
BRANCH   7  15
ATOM     12  F   UNL     1      84.634   4.479  26.185  0.00  0.00    +0.000 F 
ATOM     13  F   UNL     1      84.226   4.431  24.050  0.00  0.00    +0.000 F 
ATOM     14  F   UNL     1      82.680   3.865  25.469  0.00  0.00    +0.000 F 
ATOM     15  C   UNL     1      84.016   3.747  25.211  0.00  0.00    +0.000 C 
ENDBRANCH   7  15
BRANCH   5  18
ATOM     16  O   UNL     1      85.314  -1.334  22.503  0.00  0.00    +0.000 OA
ATOM     17  N   UNL     1      86.515   0.575  21.834  0.00  0.00    +0.000 N 
ATOM     18  C   UNL     1      85.710  -0.189  22.695  0.00  0.00    +0.000 C 
ATOM     19  H   UNL     1      86.751   1.514  22.146  0.00  0.00    +0.000 HD
BRANCH  17  22
ATOM     20  N   UNL     1      86.734  -0.147  18.236  0.00  0.00    +0.000 NA
ATOM     21  N   UNL     1      88.890  -0.512  19.247  0.00  0.00    +0.000 NA
ATOM     22  C   UNL     1      87.035   0.212  20.596  0.00  0.00    +0.000 A 
ATOM     23  C   UNL     1      86.263   0.199  19.452  0.00  0.00    +0.000 A 
ATOM     24  C   UNL     1      88.354  -0.156  20.432  0.00  0.00    +0.000 A 
ATOM     25  C   UNL     1      88.037  -0.486  18.205  0.00  0.00    +0.000 A 
BRANCH  25  26
ATOM     26  O   UNL     1      88.552  -0.843  16.980  0.00  0.00    +0.000 OA
BRANCH  26  27
ATOM     27  C   UNL     1      89.539   0.019  16.432  0.00  0.00    +0.000 C 
BRANCH  27  28
ATOM     28  C   UNL     1      90.731  -0.810  15.993  0.00  0.00    +0.000 C 
BRANCH  28  29
ATOM     29  O   UNL     1      91.484  -1.183  17.140  0.00  0.00    +0.000 OA
ATOM     30  C   UNL     1      91.627  -2.593  17.233  0.00  0.00    +0.000 C 
ENDBRANCH  28  29
ENDBRANCH  27  28
ENDBRANCH  26  27
ENDBRANCH  25  26
ENDBRANCH  17  22
ENDBRANCH   5  18
TORSDOF 7
ENDMDL
MODEL 3
REMARK VINA RESULT:      -5.4      3.560      4.734
REMARK  Name = 168679856
REMARK  8 active torsions:
REMARK  status: ('A' for Active; 'I' for Inactive)
REMARK    1  A    between atoms: O_4  and  C_23
REMARK    2  A    between atoms: O_4  and  C_28
REMARK    3  A    between atoms: O_5  and  C_24
REMARK    4  A    between atoms: O_5  and  C_29
REMARK    5  A    between atoms: N_10  and  C_19
REMARK    6  A    between atoms: C_14  and  C_18
REMARK    7  A    between atoms: C_16  and  C_20
REMARK    8  A    between atoms: C_23  and  C_24
REMARK                            x       y       z     vdW  Elec       q    Type
REMARK                         _______ _______ _______ _____ _____    ______ ____
ROOT
ATOM      1  N   UNL     1      83.446   2.864  28.694  0.00  0.00    +0.000 N 
ATOM      2  N   UNL     1      84.294   1.930  26.738  0.00  0.00    +0.000 NA
ATOM      3  N   UNL     1      83.739   4.272  26.866  0.00  0.00    +0.000 NA
ATOM      4  N   UNL     1      82.670   3.369  30.713  0.00  0.00    +0.000 NA
ATOM      5  C   UNL     1      84.671   2.127  25.458  0.00  0.00    +0.000 A 
ATOM      6  C   UNL     1      83.845   3.030  27.374  0.00  0.00    +0.000 A 
ATOM      7  C   UNL     1      84.133   4.397  25.581  0.00  0.00    +0.000 A 
ATOM      8  C   UNL     1      84.613   3.349  24.822  0.00  0.00    +0.000 A 
ATOM      9  C   UNL     1      83.466   1.697  29.405  0.00  0.00    +0.000 A 
ATOM     10  C   UNL     1      82.960   3.839  29.520  0.00  0.00    +0.000 A 
ATOM     11  C   UNL     1      82.984   2.034  30.648  0.00  0.00    +0.000 A 
ENDROOT
BRANCH   7  15
ATOM     12  F   UNL     1      84.248   5.773  23.630  0.00  0.00    +0.000 F 
ATOM     13  F   UNL     1      82.806   6.324  25.160  0.00  0.00    +0.000 F 
ATOM     14  F   UNL     1      84.928   6.653  25.493  0.00  0.00    +0.000 F 
ATOM     15  C   UNL     1      84.034   5.759  24.978  0.00  0.00    +0.000 C 
ENDBRANCH   7  15
BRANCH   5  18
ATOM     16  O   UNL     1      85.369  -0.091  25.394  0.00  0.00    +0.000 OA
ATOM     17  N   UNL     1      85.342   1.078  23.353  0.00  0.00    +0.000 N 
ATOM     18  C   UNL     1      85.170   0.926  24.739  0.00  0.00    +0.000 C 
ATOM     19  H   UNL     1      85.126   1.994  22.966  0.00  0.00    +0.000 HD
BRANCH  17  22
ATOM     20  N   UNL     1      85.496  -2.015  21.372  0.00  0.00    +0.000 NA
ATOM     21  N   UNL     1      87.313  -0.571  20.725  0.00  0.00    +0.000 NA
ATOM     22  C   UNL     1      85.767   0.129  22.430  0.00  0.00    +0.000 A 
ATOM     23  C   UNL     1      85.111  -1.072  22.257  0.00  0.00    +0.000 A 
ATOM     24  C   UNL     1      86.873   0.327  21.629  0.00  0.00    +0.000 A 
ATOM     25  C   UNL     1      86.589  -1.704  20.649  0.00  0.00    +0.000 A 
BRANCH  25  26
ATOM     26  O   UNL     1      87.010  -2.642  19.735  0.00  0.00    +0.000 OA
BRANCH  26  27
ATOM     27  C   UNL     1      88.395  -2.955  19.740  0.00  0.00    +0.000 C 
BRANCH  27  28
ATOM     28  C   UNL     1      88.657  -4.022  20.785  0.00  0.00    +0.000 C 
BRANCH  28  29
ATOM     29  O   UNL     1      90.017  -3.947  21.196  0.00  0.00    +0.000 OA
ATOM     30  C   UNL     1      90.875  -4.612  20.280  0.00  0.00    +0.000 C 
ENDBRANCH  28  29
ENDBRANCH  27  28
ENDBRANCH  26  27
ENDBRANCH  25  26
ENDBRANCH  17  22
ENDBRANCH   5  18
TORSDOF 7
ENDMDL
MODEL 4
REMARK VINA RESULT:      -5.3      2.852      3.987
REMARK  Name = 168679856
REMARK  8 active torsions:
REMARK  status: ('A' for Active; 'I' for Inactive)
REMARK    1  A    between atoms: O_4  and  C_23
REMARK    2  A    between atoms: O_4  and  C_28
REMARK    3  A    between atoms: O_5  and  C_24
REMARK    4  A    between atoms: O_5  and  C_29
REMARK    5  A    between atoms: N_10  and  C_19
REMARK    6  A    between atoms: C_14  and  C_18
REMARK    7  A    between atoms: C_16  and  C_20
REMARK    8  A    between atoms: C_23  and  C_24
REMARK                            x       y       z     vdW  Elec       q    Type
REMARK                         _______ _______ _______ _____ _____    ______ ____
ROOT
ATOM      1  N   UNL     1      83.800   1.888  28.411  0.00  0.00    +0.000 N 
ATOM      2  N   UNL     1      84.562   1.268  26.302  0.00  0.00    +0.000 NA
ATOM      3  N   UNL     1      83.855   3.526  26.761  0.00  0.00    +0.000 NA
ATOM      4  N   UNL     1      83.146   2.082  30.525  0.00  0.00    +0.000 NA
ATOM      5  C   UNL     1      84.827   1.647  25.035  0.00  0.00    +0.000 A 
ATOM      6  C   UNL     1      84.086   2.243  27.099  0.00  0.00    +0.000 A 
ATOM      7  C   UNL     1      84.142   3.836  25.478  0.00  0.00    +0.000 A 
ATOM      8  C   UNL     1      84.636   2.929  24.563  0.00  0.00    +0.000 A 
ATOM      9  C   UNL     1      83.956   0.649  28.967  0.00  0.00    +0.000 A 
ATOM     10  C   UNL     1      83.311   2.715  29.384  0.00  0.00    +0.000 A 
ATOM     11  C   UNL     1      83.546   0.794  30.271  0.00  0.00    +0.000 A 
ENDROOT
BRANCH   7  15
ATOM     12  F   UNL     1      84.765   6.139  25.633  0.00  0.00    +0.000 F 
ATOM     13  F   UNL     1      84.032   5.426  23.714  0.00  0.00    +0.000 F 
ATOM     14  F   UNL     1      82.655   5.708  25.371  0.00  0.00    +0.000 F 
ATOM     15  C   UNL     1      83.902   5.248  25.060  0.00  0.00    +0.000 C 
ENDBRANCH   7  15
BRANCH   5  18
ATOM     16  O   UNL     1      85.295  -0.575  24.531  0.00  0.00    +0.000 OA
ATOM     17  N   UNL     1      85.850   1.028  22.901  0.00  0.00    +0.000 N 
ATOM     18  C   UNL     1      85.353   0.585  24.138  0.00  0.00    +0.000 C 
ATOM     19  H   UNL     1      85.822   2.031  22.733  0.00  0.00    +0.000 HD
BRANCH  17  22
ATOM     20  N   UNL     1      88.092  -0.110  20.218  0.00  0.00    +0.000 NA
ATOM     21  N   UNL     1      86.241  -1.641  20.404  0.00  0.00    +0.000 NA
ATOM     22  C   UNL     1      86.377   0.266  21.864  0.00  0.00    +0.000 A 
ATOM     23  C   UNL     1      87.553   0.607  21.227  0.00  0.00    +0.000 A 
ATOM     24  C   UNL     1      85.759  -0.879  21.406  0.00  0.00    +0.000 A 
ATOM     25  C   UNL     1      87.395  -1.205  19.862  0.00  0.00    +0.000 A 
BRANCH  25  26
ATOM     26  O   UNL     1      87.916  -1.960  18.837  0.00  0.00    +0.000 OA
BRANCH  26  27
ATOM     27  C   UNL     1      87.557  -1.573  17.518  0.00  0.00    +0.000 C 
BRANCH  27  28
ATOM     28  C   UNL     1      88.818  -1.420  16.688  0.00  0.00    +0.000 C 
BRANCH  28  29
ATOM     29  O   UNL     1      89.421  -0.167  16.986  0.00  0.00    +0.000 OA
ATOM     30  C   UNL     1      90.812  -0.305  17.235  0.00  0.00    +0.000 C 
ENDBRANCH  28  29
ENDBRANCH  27  28
ENDBRANCH  26  27
ENDBRANCH  25  26
ENDBRANCH  17  22
ENDBRANCH   5  18
TORSDOF 7
ENDMDL
MODEL 5
REMARK VINA RESULT:      -4.9      4.460      9.697
REMARK  Name = 168679856
REMARK  8 active torsions:
REMARK  status: ('A' for Active; 'I' for Inactive)
REMARK    1  A    between atoms: O_4  and  C_23
REMARK    2  A    between atoms: O_4  and  C_28
REMARK    3  A    between atoms: O_5  and  C_24
REMARK    4  A    between atoms: O_5  and  C_29
REMARK    5  A    between atoms: N_10  and  C_19
REMARK    6  A    between atoms: C_14  and  C_18
REMARK    7  A    between atoms: C_16  and  C_20
REMARK    8  A    between atoms: C_23  and  C_24
REMARK                            x       y       z     vdW  Elec       q    Type
REMARK                         _______ _______ _______ _____ _____    ______ ____
ROOT
ATOM      1  N   UNL     1      89.235  -2.472  18.692  0.00  0.00    +0.000 N 
ATOM      2  N   UNL     1      87.543  -1.577  20.016  0.00  0.00    +0.000 NA
ATOM      3  N   UNL     1      88.049  -0.659  17.846  0.00  0.00    +0.000 NA
ATOM      4  N   UNL     1      90.902  -3.593  17.745  0.00  0.00    +0.000 NA
ATOM      5  C   UNL     1      86.578  -0.645  20.145  0.00  0.00    +0.000 A 
ATOM      6  C   UNL     1      88.230  -1.528  18.859  0.00  0.00    +0.000 A 
ATOM      7  C   UNL     1      87.066   0.246  18.042  0.00  0.00    +0.000 A 
ATOM      8  C   UNL     1      86.291   0.300  19.182  0.00  0.00    +0.000 A 
ATOM      9  C   UNL     1      89.590  -3.443  19.587  0.00  0.00    +0.000 A 
ATOM     10  C   UNL     1      90.050  -2.602  17.603  0.00  0.00    +0.000 A 
ATOM     11  C   UNL     1      90.620  -4.121  18.981  0.00  0.00    +0.000 A 
ENDROOT
BRANCH   7  15
ATOM     12  F   UNL     1      87.799   1.209  15.980  0.00  0.00    +0.000 F 
ATOM     13  F   UNL     1      85.656   1.007  16.286  0.00  0.00    +0.000 F 
ATOM     14  F   UNL     1      86.774   2.524  17.368  0.00  0.00    +0.000 F 
ATOM     15  C   UNL     1      86.831   1.227  16.943  0.00  0.00    +0.000 C 
ENDBRANCH   7  15
BRANCH   5  18
ATOM     16  O   UNL     1      85.386  -1.769  21.797  0.00  0.00    +0.000 OA
ATOM     17  N   UNL     1      85.660   0.552  22.071  0.00  0.00    +0.000 N 
ATOM     18  C   UNL     1      85.807  -0.682  21.416  0.00  0.00    +0.000 C 
ATOM     19  H   UNL     1      86.076   1.361  21.616  0.00  0.00    +0.000 HD
BRANCH  17  22
ATOM     20  N   UNL     1      85.112   1.170  25.654  0.00  0.00    +0.000 NA
ATOM     21  N   UNL     1      82.994   1.241  24.507  0.00  0.00    +0.000 NA
ATOM     22  C   UNL     1      85.017   0.813  23.276  0.00  0.00    +0.000 A 
ATOM     23  C   UNL     1      85.704   0.917  24.468  0.00  0.00    +0.000 A 
ATOM     24  C   UNL     1      83.650   0.986  23.357  0.00  0.00    +0.000 A 
ATOM     25  C   UNL     1      83.775   1.319  25.602  0.00  0.00    +0.000 A 
BRANCH  25  26
ATOM     26  O   UNL     1      83.138   1.580  26.793  0.00  0.00    +0.000 OA
BRANCH  26  27
ATOM     27  C   UNL     1      83.757   2.530  27.648  0.00  0.00    +0.000 C 
BRANCH  27  28
ATOM     28  C   UNL     1      83.160   3.899  27.380  0.00  0.00    +0.000 C 
BRANCH  28  29
ATOM     29  O   UNL     1      84.201   4.796  27.016  0.00  0.00    +0.000 OA
ATOM     30  C   UNL     1      84.204   5.050  25.618  0.00  0.00    +0.000 C 
ENDBRANCH  28  29
ENDBRANCH  27  28
ENDBRANCH  26  27
ENDBRANCH  25  26
ENDBRANCH  17  22
ENDBRANCH   5  18
TORSDOF 7
ENDMDL
MODEL 6
REMARK VINA RESULT:      -4.8      2.519      4.144
REMARK  Name = 168679856
REMARK  8 active torsions:
REMARK  status: ('A' for Active; 'I' for Inactive)
REMARK    1  A    between atoms: O_4  and  C_23
REMARK    2  A    between atoms: O_4  and  C_28
REMARK    3  A    between atoms: O_5  and  C_24
REMARK    4  A    between atoms: O_5  and  C_29
REMARK    5  A    between atoms: N_10  and  C_19
REMARK    6  A    between atoms: C_14  and  C_18
REMARK    7  A    between atoms: C_16  and  C_20
REMARK    8  A    between atoms: C_23  and  C_24
REMARK                            x       y       z     vdW  Elec       q    Type
REMARK                         _______ _______ _______ _____ _____    ______ ____
ROOT
ATOM      1  N   UNL     1      84.488   0.367  28.154  0.00  0.00    +0.000 N 
ATOM      2  N   UNL     1      84.921   0.220  25.872  0.00  0.00    +0.000 NA
ATOM      3  N   UNL     1      84.100   2.260  26.859  0.00  0.00    +0.000 NA
ATOM      4  N   UNL     1      84.200   0.110  30.341  0.00  0.00    +0.000 NA
ATOM      5  C   UNL     1      84.922   0.843  24.676  0.00  0.00    +0.000 A 
ATOM      6  C   UNL     1      84.504   0.977  26.905  0.00  0.00    +0.000 A 
ATOM      7  C   UNL     1      84.126   2.820  25.631  0.00  0.00    +0.000 A 
ATOM      8  C   UNL     1      84.533   2.153  24.493  0.00  0.00    +0.000 A 
ATOM      9  C   UNL     1      84.853  -0.920  28.431  0.00  0.00    +0.000 A 
ATOM     10  C   UNL     1      84.103   0.946  29.331  0.00  0.00    +0.000 A 
ATOM     11  C   UNL     1      84.667  -1.055  29.786  0.00  0.00    +0.000 A 
ENDROOT
BRANCH   7  15
ATOM     12  F   UNL     1      83.186   4.574  24.306  0.00  0.00    +0.000 F 
ATOM     13  F   UNL     1      82.702   4.550  26.426  0.00  0.00    +0.000 F 
ATOM     14  F   UNL     1      84.686   5.143  25.767  0.00  0.00    +0.000 F 
ATOM     15  C   UNL     1      83.687   4.243  25.533  0.00  0.00    +0.000 C 
ENDBRANCH   7  15
BRANCH   5  18
ATOM     16  O   UNL     1      85.153  -1.180  23.550  0.00  0.00    +0.000 OA
ATOM     17  N   UNL     1      86.010   0.736  22.487  0.00  0.00    +0.000 N 
ATOM     18  C   UNL     1      85.378   0.025  23.521  0.00  0.00    +0.000 C 
ATOM     19  H   UNL     1      86.115   1.739  22.623  0.00  0.00    +0.000 HD
BRANCH  17  22
ATOM     20  N   UNL     1      86.158  -0.837  19.168  0.00  0.00    +0.000 NA
ATOM     21  N   UNL     1      88.375  -0.150  19.815  0.00  0.00    +0.000 NA
ATOM     22  C   UNL     1      86.513   0.244  21.288  0.00  0.00    +0.000 A 
ATOM     23  C   UNL     1      85.704  -0.349  20.341  0.00  0.00    +0.000 A 
ATOM     24  C   UNL     1      87.853   0.317  20.968  0.00  0.00    +0.000 A 
ATOM     25  C   UNL     1      87.484  -0.706  18.972  0.00  0.00    +0.000 A 
BRANCH  25  26
ATOM     26  O   UNL     1      87.982  -1.192  17.785  0.00  0.00    +0.000 OA
BRANCH  26  27
ATOM     27  C   UNL     1      88.619  -0.251  16.933  0.00  0.00    +0.000 C 
BRANCH  27  28
ATOM     28  C   UNL     1      87.803  -0.101  15.663  0.00  0.00    +0.000 C 
BRANCH  28  29
ATOM     29  O   UNL     1      86.801   0.887  15.868  0.00  0.00    +0.000 OA
ATOM     30  C   UNL     1      85.497   0.338  15.750  0.00  0.00    +0.000 C 
ENDBRANCH  28  29
ENDBRANCH  27  28
ENDBRANCH  26  27
ENDBRANCH  25  26
ENDBRANCH  17  22
ENDBRANCH   5  18
TORSDOF 7
ENDMDL
MODEL 7
REMARK VINA RESULT:      -4.8     13.885     15.241
REMARK  Name = 168679856
REMARK  8 active torsions:
REMARK  status: ('A' for Active; 'I' for Inactive)
REMARK    1  A    between atoms: O_4  and  C_23
REMARK    2  A    between atoms: O_4  and  C_28
REMARK    3  A    between atoms: O_5  and  C_24
REMARK    4  A    between atoms: O_5  and  C_29
REMARK    5  A    between atoms: N_10  and  C_19
REMARK    6  A    between atoms: C_14  and  C_18
REMARK    7  A    between atoms: C_16  and  C_20
REMARK    8  A    between atoms: C_23  and  C_24
REMARK                            x       y       z     vdW  Elec       q    Type
REMARK                         _______ _______ _______ _____ _____    ______ ____
ROOT
ATOM      1  N   UNL     1      96.531   4.126  27.851  0.00  0.00    +0.000 N 
ATOM      2  N   UNL     1      98.248   2.556  27.927  0.00  0.00    +0.000 NA
ATOM      3  N   UNL     1      98.584   4.728  26.937  0.00  0.00    +0.000 NA
ATOM      4  N   UNL     1      94.669   5.330  27.972  0.00  0.00    +0.000 NA
ATOM      5  C   UNL     1      99.529   2.262  27.626  0.00  0.00    +0.000 A 
ATOM      6  C   UNL     1      97.847   3.788  27.559  0.00  0.00    +0.000 A 
ATOM      7  C   UNL     1      99.856   4.366  26.667  0.00  0.00    +0.000 A 
ATOM      8  C   UNL     1     100.388   3.135  26.992  0.00  0.00    +0.000 A 
ATOM      9  C   UNL     1      95.611   3.330  28.474  0.00  0.00    +0.000 A 
ATOM     10  C   UNL     1      95.920   5.315  27.569  0.00  0.00    +0.000 A 
ATOM     11  C   UNL     1      94.470   4.094  28.537  0.00  0.00    +0.000 A 
ENDROOT
BRANCH   7  15
ATOM     12  F   UNL     1     101.071   6.422  26.782  0.00  0.00    +0.000 F 
ATOM     13  F   UNL     1     101.878   4.850  25.514  0.00  0.00    +0.000 F 
ATOM     14  F   UNL     1     100.111   5.953  24.893  0.00  0.00    +0.000 F 
ATOM     15  C   UNL     1     100.709   5.378  25.978  0.00  0.00    +0.000 C 
ENDBRANCH   7  15
BRANCH   5  18
ATOM     16  O   UNL     1     101.199   0.730  28.156  0.00  0.00    +0.000 OA
ATOM     17  N   UNL     1      98.978  -0.044  28.231  0.00  0.00    +0.000 N 
ATOM     18  C   UNL     1      99.992   0.906  28.023  0.00  0.00    +0.000 C 
ATOM     19  H   UNL     1      98.022   0.270  28.078  0.00  0.00    +0.000 HD
BRANCH  17  22
ATOM     20  N   UNL     1      99.503  -2.999  30.355  0.00  0.00    +0.000 NA
ATOM     21  N   UNL     1      99.116  -3.715  28.087  0.00  0.00    +0.000 NA
ATOM     22  C   UNL     1      99.111  -1.370  28.627  0.00  0.00    +0.000 A 
ATOM     23  C   UNL     1      99.369  -1.723  29.936  0.00  0.00    +0.000 A 
ATOM     24  C   UNL     1      98.993  -2.418  27.738  0.00  0.00    +0.000 A 
ATOM     25  C   UNL     1      99.367  -3.931  29.393  0.00  0.00    +0.000 A 
BRANCH  25  26
ATOM     26  O   UNL     1      99.496  -5.243  29.784  0.00  0.00    +0.000 OA
BRANCH  26  27
ATOM     27  C   UNL     1      98.603  -5.695  30.792  0.00  0.00    +0.000 C 
BRANCH  27  28
ATOM     28  C   UNL     1      97.192  -5.700  30.236  0.00  0.00    +0.000 C 
BRANCH  28  29
ATOM     29  O   UNL     1      96.421  -4.718  30.917  0.00  0.00    +0.000 OA
ATOM     30  C   UNL     1      95.753  -3.857  30.005  0.00  0.00    +0.000 C 
ENDBRANCH  28  29
ENDBRANCH  27  28
ENDBRANCH  26  27
ENDBRANCH  25  26
ENDBRANCH  17  22
ENDBRANCH   5  18
TORSDOF 7
ENDMDL
MODEL 8
REMARK VINA RESULT:      -4.7      6.021     11.208
REMARK  Name = 168679856
REMARK  8 active torsions:
REMARK  status: ('A' for Active; 'I' for Inactive)
REMARK    1  A    between atoms: O_4  and  C_23
REMARK    2  A    between atoms: O_4  and  C_28
REMARK    3  A    between atoms: O_5  and  C_24
REMARK    4  A    between atoms: O_5  and  C_29
REMARK    5  A    between atoms: N_10  and  C_19
REMARK    6  A    between atoms: C_14  and  C_18
REMARK    7  A    between atoms: C_16  and  C_20
REMARK    8  A    between atoms: C_23  and  C_24
REMARK                            x       y       z     vdW  Elec       q    Type
REMARK                         _______ _______ _______ _____ _____    ______ ____
ROOT
ATOM      1  N   UNL     1      83.212   5.247  24.778  0.00  0.00    +0.000 N 
ATOM      2  N   UNL     1      83.321   3.839  26.627  0.00  0.00    +0.000 NA
ATOM      3  N   UNL     1      84.249   3.183  24.501  0.00  0.00    +0.000 NA
ATOM      4  N   UNL     1      82.911   6.852  23.272  0.00  0.00    +0.000 NA
ATOM      5  C   UNL     1      83.723   2.652  27.127  0.00  0.00    +0.000 A 
ATOM      6  C   UNL     1      83.613   4.036  25.327  0.00  0.00    +0.000 A 
ATOM      7  C   UNL     1      84.622   2.016  25.067  0.00  0.00    +0.000 A 
ATOM      8  C   UNL     1      84.384   1.693  26.388  0.00  0.00    +0.000 A 
ATOM      9  C   UNL     1      82.555   6.253  25.429  0.00  0.00    +0.000 A 
ATOM     10  C   UNL     1      83.404   5.652  23.486  0.00  0.00    +0.000 A 
ATOM     11  C   UNL     1      82.380   7.232  24.480  0.00  0.00    +0.000 A 
ENDROOT
BRANCH   7  15
ATOM     12  F   UNL     1      84.583   0.624  23.124  0.00  0.00    +0.000 F 
ATOM     13  F   UNL     1      86.475   1.555  23.651  0.00  0.00    +0.000 F 
ATOM     14  F   UNL     1      85.710  -0.103  24.830  0.00  0.00    +0.000 F 
ATOM     15  C   UNL     1      85.331   1.041  24.187  0.00  0.00    +0.000 C 
ENDBRANCH   7  15
BRANCH   5  18
ATOM     16  O   UNL     1      82.922   1.332  28.868  0.00  0.00    +0.000 OA
ATOM     17  N   UNL     1      83.737   3.465  29.434  0.00  0.00    +0.000 N 
ATOM     18  C   UNL     1      83.411   2.414  28.561  0.00  0.00    +0.000 C 
ATOM     19  H   UNL     1      84.141   4.298  29.011  0.00  0.00    +0.000 HD
BRANCH  17  22
ATOM     20  N   UNL     1      84.499   3.249  33.024  0.00  0.00    +0.000 NA
ATOM     21  N   UNL     1      82.205   3.929  32.743  0.00  0.00    +0.000 NA
ATOM     22  C   UNL     1      83.583   3.515  30.815  0.00  0.00    +0.000 A 
ATOM     23  C   UNL     1      84.614   3.211  31.680  0.00  0.00    +0.000 A 
ATOM     24  C   UNL     1      82.390   3.871  31.409  0.00  0.00    +0.000 A 
ATOM     25  C   UNL     1      83.286   3.611  33.481  0.00  0.00    +0.000 A 
BRANCH  25  26
ATOM     26  O   UNL     1      83.133   3.661  34.847  0.00  0.00    +0.000 OA
BRANCH  26  27
ATOM     27  C   UNL     1      82.228   2.727  35.419  0.00  0.00    +0.000 C 
BRANCH  27  28
ATOM     28  C   UNL     1      82.951   1.414  35.646  0.00  0.00    +0.000 C 
BRANCH  28  29
ATOM     29  O   UNL     1      84.184   1.670  36.306  0.00  0.00    +0.000 OA
ATOM     30  C   UNL     1      85.118   0.622  36.089  0.00  0.00    +0.000 C 
ENDBRANCH  28  29
ENDBRANCH  27  28
ENDBRANCH  26  27
ENDBRANCH  25  26
ENDBRANCH  17  22
ENDBRANCH   5  18
TORSDOF 7
ENDMDL
MODEL 9
REMARK VINA RESULT:      -4.7     14.376     15.874
REMARK  Name = 168679856
REMARK  8 active torsions:
REMARK  status: ('A' for Active; 'I' for Inactive)
REMARK    1  A    between atoms: O_4  and  C_23
REMARK    2  A    between atoms: O_4  and  C_28
REMARK    3  A    between atoms: O_5  and  C_24
REMARK    4  A    between atoms: O_5  and  C_29
REMARK    5  A    between atoms: N_10  and  C_19
REMARK    6  A    between atoms: C_14  and  C_18
REMARK    7  A    between atoms: C_16  and  C_20
REMARK    8  A    between atoms: C_23  and  C_24
REMARK                            x       y       z     vdW  Elec       q    Type
REMARK                         _______ _______ _______ _____ _____    ______ ____
ROOT
ATOM      1  N   UNL     1     100.516   5.371  27.224  0.00  0.00    +0.000 N 
ATOM      2  N   UNL     1     100.297   3.108  27.717  0.00  0.00    +0.000 NA
ATOM      3  N   UNL     1      98.514   4.333  26.654  0.00  0.00    +0.000 NA
ATOM      4  N   UNL     1     101.104   7.492  26.922  0.00  0.00    +0.000 NA
ATOM      5  C   UNL     1      99.516   2.009  27.676  0.00  0.00    +0.000 A 
ATOM      6  C   UNL     1      99.741   4.219  27.197  0.00  0.00    +0.000 A 
ATOM      7  C   UNL     1      97.788   3.195  26.646  0.00  0.00    +0.000 A 
ATOM      8  C   UNL     1      98.243   1.992  27.147  0.00  0.00    +0.000 A 
ATOM      9  C   UNL     1     101.782   5.484  27.725  0.00  0.00    +0.000 A 
ATOM     10  C   UNL     1     100.151   6.602  26.753  0.00  0.00    +0.000 A 
ATOM     11  C   UNL     1     102.124   6.801  27.528  0.00  0.00    +0.000 A 
ENDROOT
BRANCH   7  15
ATOM     12  F   UNL     1      95.469   3.699  26.936  0.00  0.00    +0.000 F 
ATOM     13  F   UNL     1      96.356   4.142  25.001  0.00  0.00    +0.000 F 
ATOM     14  F   UNL     1      95.959   2.083  25.574  0.00  0.00    +0.000 F 
ATOM     15  C   UNL     1      96.421   3.276  26.053  0.00  0.00    +0.000 C 
ENDBRANCH   7  15
BRANCH   5  18
ATOM     16  O   UNL     1     101.331   0.725  28.364  0.00  0.00    +0.000 OA
ATOM     17  N   UNL     1      99.194  -0.226  28.619  0.00  0.00    +0.000 N 
ATOM     18  C   UNL     1     100.111   0.771  28.246  0.00  0.00    +0.000 C 
ATOM     19  H   UNL     1      98.210  -0.023  28.454  0.00  0.00    +0.000 HD
BRANCH  17  22
ATOM     20  N   UNL     1      99.955  -2.795  31.135  0.00  0.00    +0.000 NA
ATOM     21  N   UNL     1      99.748  -3.842  28.976  0.00  0.00    +0.000 NA
ATOM     22  C   UNL     1      99.458  -1.464  29.194  0.00  0.00    +0.000 A 
ATOM     23  C   UNL     1      99.697  -1.610  30.545  0.00  0.00    +0.000 A 
ATOM     24  C   UNL     1      99.496  -2.626  28.451  0.00  0.00    +0.000 A 
ATOM     25  C   UNL     1      99.965  -3.855  30.305  0.00  0.00    +0.000 A 
BRANCH  25  26
ATOM     26  O   UNL     1     100.224  -5.080  30.873  0.00  0.00    +0.000 OA
BRANCH  26  27
ATOM     27  C   UNL     1      99.374  -5.476  31.941  0.00  0.00    +0.000 C 
BRANCH  27  28
ATOM     28  C   UNL     1      97.974  -5.700  31.401  0.00  0.00    +0.000 C 
BRANCH  28  29
ATOM     29  O   UNL     1      97.062  -4.886  32.126  0.00  0.00    +0.000 OA
ATOM     30  C   UNL     1      96.457  -3.910  31.289  0.00  0.00    +0.000 C 
ENDBRANCH  28  29
ENDBRANCH  27  28
ENDBRANCH  26  27
ENDBRANCH  25  26
ENDBRANCH  17  22
ENDBRANCH   5  18
TORSDOF 7
ENDMDL
