REMARK VINA RESULT:      -5.7      0.000      0.000
REMARK  Name = 5280443
REMARK  4 active torsions:
REMARK  status: ('A' for Active; 'I' for Inactive)
REMARK    1  A    between atoms: O_2  and  C_12
REMARK    2  A    between atoms: O_4  and  C_14
REMARK    3  A    between atoms: O_5  and  C_20
REMARK    4  A    between atoms: C_8  and  C_9
REMARK                            x       y       z     vdW  Elec       q    Type
REMARK                         _______ _______ _______ _____ _____    ______ ____
ROOT
ATOM      1  O   UNL     1      84.852   1.582  26.421  0.00  0.00    +0.000 OA
ATOM      2  O   UNL     1      82.955   1.540  30.026  0.00  0.00    +0.000 OA
ATOM      3  C   UNL     1      84.330   0.401  28.478  0.00  0.00    +0.000 A 
ATOM      4  C   UNL     1      84.953   0.482  27.235  0.00  0.00    +0.000 A 
ATOM      5  C   UNL     1      84.088   2.656  26.854  0.00  0.00    +0.000 A 
ATOM      6  C   UNL     1      83.527   1.542  28.946  0.00  0.00    +0.000 A 
ATOM      7  C   UNL     1      83.447   2.700  28.033  0.00  0.00    +0.000 A 
ATOM      8  C   UNL     1      84.469  -0.744  29.265  0.00  0.00    +0.000 A 
ATOM      9  C   UNL     1      85.722  -0.584  26.769  0.00  0.00    +0.000 A 
ATOM     10  C   UNL     1      85.864  -1.731  27.552  0.00  0.00    +0.000 A 
ATOM     11  C   UNL     1      85.238  -1.811  28.798  0.00  0.00    +0.000 A 
ENDROOT
BRANCH   5  12
ATOM     12  C   UNL     1      84.051   3.786  25.906  0.00  0.00    +0.000 A 
ATOM     13  C   UNL     1      84.223   5.095  26.367  0.00  0.00    +0.000 A 
ATOM     14  C   UNL     1      83.846   3.554  24.544  0.00  0.00    +0.000 A 
ATOM     15  C   UNL     1      84.189   6.163  25.471  0.00  0.00    +0.000 A 
ATOM     16  C   UNL     1      83.813   4.623  23.649  0.00  0.00    +0.000 A 
ATOM     17  C   UNL     1      83.983   5.928  24.112  0.00  0.00    +0.000 A 
BRANCH  17  18
ATOM     18  O   UNL     1      83.951   6.970  23.238  0.00  0.00    +0.000 OA
ATOM     19  H   UNL     1      83.102   7.436  23.335  0.00  0.00    +0.000 HD
ENDBRANCH  17  18
ENDBRANCH   5  12
BRANCH   8  20
ATOM     20  O   UNL     1      83.880  -0.872  30.487  0.00  0.00    +0.000 OA
ATOM     21  H   UNL     1      82.965  -0.552  30.458  0.00  0.00    +0.000 HD
ENDBRANCH   8  20
BRANCH  10  22
ATOM     22  O   UNL     1      86.613  -2.774  27.100  0.00  0.00    +0.000 OA
ATOM     23  H   UNL     1      86.373  -3.574  27.599  0.00  0.00    +0.000 HD
ENDBRANCH  10  22
TORSDOF 4
