REMARK VINA RESULT:      -5.9      0.000      0.000
REMARK  Name = 118736856
REMARK  9 active torsions:
REMARK  status: ('A' for Active; 'I' for Inactive)
REMARK    1  A    between atoms: O_2  and  C_11
REMARK    2  A    between atoms: O_2  and  C_15
REMARK    3  A    between atoms: O_3  and  C_19
REMARK    4  A    between atoms: O_3  and  C_27
REMARK    5  A    between atoms: N_5  and  C_8
REMARK    6  A    between atoms: N_5  and  C_14
REMARK    7  A    between atoms: N_6  and  C_25
REMARK    8  A    between atoms: C_15  and  C_19
REMARK    9  A    between atoms: C_23  and  C_26
REMARK                            x       y       z     vdW  Elec       q    Type
REMARK                         _______ _______ _______ _____ _____    ______ ____
ROOT
ATOM      1  O   UNL     1      85.655  -2.030  26.380  0.00  0.00    +0.000 OA
ATOM      2  N   UNL     1      84.880   0.135  26.760  0.00  0.00    +0.000 N 
ATOM      3  C   UNL     1      85.086   0.504  23.939  0.00  0.00    +0.000 A 
ATOM      4  C   UNL     1      84.612   1.607  24.807  0.00  0.00    +0.000 A 
ATOM      5  C   UNL     1      85.413  -0.664  24.510  0.00  0.00    +0.000 A 
ATOM      6  C   UNL     1      84.518   1.403  26.202  0.00  0.00    +0.000 A 
ATOM      7  C   UNL     1      84.250   2.865  24.287  0.00  0.00    +0.000 A 
ATOM      8  C   UNL     1      85.327  -0.917  25.967  0.00  0.00    +0.000 A 
ATOM      9  C   UNL     1      84.067   2.456  27.023  0.00  0.00    +0.000 A 
ATOM     10  C   UNL     1      83.806   3.896  25.116  0.00  0.00    +0.000 A 
ATOM     11  C   UNL     1      83.713   3.691  26.483  0.00  0.00    +0.000 A 
ATOM     12  C   UNL     1      84.776  -0.060  28.205  0.00  0.00    +0.000 C 
ENDROOT
BRANCH  10  15
ATOM     13  S   UNL     1      81.904   5.853  24.893  0.00  0.00    +0.000 S 
ATOM     14  N   UNL     1      83.501   7.184  23.357  0.00  0.00    +0.000 NA
ATOM     15  C   UNL     1      83.441   5.173  24.551  0.00  0.00    +0.000 A 
ATOM     16  C   UNL     1      84.148   6.019  23.723  0.00  0.00    +0.000 A 
ATOM     17  C   UNL     1      82.311   7.203  23.914  0.00  0.00    +0.000 A 
ENDBRANCH  10  15
BRANCH   3  18
ATOM     18  N   UNL     1      85.182   0.685  22.585  0.00  0.00    +0.000 N 
ATOM     19  H   UNL     1      84.730   1.487  22.166  0.00  0.00    +0.000 HD
BRANCH  18  20
ATOM     20  C   UNL     1      86.047  -0.107  21.738  0.00  0.00    +0.000 C 
ATOM     21  C   UNL     1      85.287  -0.517  20.474  0.00  0.00    +0.000 C 
ATOM     22  C   UNL     1      87.305   0.695  21.401  0.00  0.00    +0.000 C 
ATOM     23  C   UNL     1      87.446  -0.470  19.163  0.00  0.00    +0.000 C 
ATOM     24  C   UNL     1      86.190  -1.270  19.501  0.00  0.00    +0.000 C 
ATOM     25  C   UNL     1      88.204  -0.060  20.425  0.00  0.00    +0.000 C 
BRANCH  23  26
ATOM     26  O   UNL     1      88.287  -1.271  18.339  0.00  0.00    +0.000 OA
BRANCH  26  27
ATOM     27  C   UNL     1      89.303  -0.494  17.722  0.00  0.00    +0.000 C 
BRANCH  27  28
ATOM     28  C   UNL     1      88.695   0.291  16.575  0.00  0.00    +0.000 C 
BRANCH  28  29
ATOM     29  O   UNL     1      89.736   0.936  15.851  0.00  0.00    +0.000 OA
ATOM     30  C   UNL     1      90.994   0.320  16.087  0.00  0.00    +0.000 C 
ENDBRANCH  28  29
ENDBRANCH  27  28
ENDBRANCH  26  27
ENDBRANCH  23  26
ENDBRANCH  18  20
ENDBRANCH   3  18
TORSDOF 7
