REMARK VINA RESULT:      -4.7     14.177     15.654
REMARK  Name = 155598690
REMARK  7 active torsions:
REMARK  status: ('A' for Active; 'I' for Inactive)
REMARK    1  A    between atoms: O_1  and  C_11
REMARK    2  A    between atoms: O_1  and  C_16
REMARK    3  A    between atoms: O_3  and  C_19
REMARK    4  A    between atoms: O_3  and  C_25
REMARK    5  A    between atoms: N_4  and  C_10
REMARK    6  A    between atoms: C_16  and  C_19
REMARK    7  A    between atoms: C_17  and  C_18
REMARK                            x       y       z     vdW  Elec       q    Type
REMARK                         _______ _______ _______ _____ _____    ______ ____
ROOT
ATOM      1  O   UNL     1      97.622   0.799  26.316  0.00  0.00    +0.000 OA
ATOM      2  N   UNL     1      99.287   0.546  27.910  0.00  0.00    +0.000 N 
ATOM      3  C   UNL     1      98.465   1.279  27.069  0.00  0.00    +0.000 C 
ATOM      4  H   UNL     1      99.993   1.031  28.457  0.00  0.00    +0.000 HD
ENDROOT
BRANCH   3  10
ATOM      5  N   UNL     1      97.618   3.524  27.460  0.00  0.00    +0.000 NA
ATOM      6  N   UNL     1     101.069   2.888  26.352  0.00  0.00    +0.000 N 
ATOM      7  N   UNL     1      98.924   5.557  27.173  0.00  0.00    +0.000 NA
ATOM      8  N   UNL     1      96.710   5.622  27.862  0.00  0.00    +0.000 N 
ATOM      9  N   UNL     1      95.481   7.407  28.345  0.00  0.00    +0.000 NA
ATOM     10  C   UNL     1      98.663   2.751  27.092  0.00  0.00    +0.000 A 
ATOM     11  C   UNL     1      99.852   3.373  26.758  0.00  0.00    +0.000 A 
ATOM     12  C   UNL     1      99.956   4.760  26.806  0.00  0.00    +0.000 A 
ATOM     13  C   UNL     1      97.809   4.862  27.478  0.00  0.00    +0.000 A 
ATOM     14  C   UNL     1     101.274   5.104  26.417  0.00  0.00    +0.000 A 
ATOM     15  C   UNL     1     101.938   3.929  26.142  0.00  0.00    +0.000 A 
ATOM     16  C   UNL     1      95.481   5.145  28.217  0.00  0.00    +0.000 A 
ATOM     17  C   UNL     1      96.663   6.985  27.955  0.00  0.00    +0.000 A 
ATOM     18  C   UNL     1      94.739   6.265  28.510  0.00  0.00    +0.000 A 
ATOM     19  H   UNL     1     101.295   1.910  26.225  0.00  0.00    +0.000 HD
ENDBRANCH   3  10
BRANCH   2  20
ATOM     20  C   UNL     1      99.233  -0.895  27.982  0.00  0.00    +0.000 C 
ATOM     21  C   UNL     1      99.623  -3.445  29.419  0.00  0.00    +0.000 C 
ATOM     22  C   UNL     1     100.633  -1.474  28.203  0.00  0.00    +0.000 C 
ATOM     23  C   UNL     1      98.261  -1.345  29.076  0.00  0.00    +0.000 C 
ATOM     24  C   UNL     1     100.594  -2.994  28.329  0.00  0.00    +0.000 C 
ATOM     25  C   UNL     1      98.228  -2.866  29.199  0.00  0.00    +0.000 C 
BRANCH  21  26
ATOM     26  O   UNL     1      99.533  -4.865  29.421  0.00  0.00    +0.000 OA
BRANCH  26  27
ATOM     27  C   UNL     1     100.017  -5.416  30.638  0.00  0.00    +0.000 C 
BRANCH  27  28
ATOM     28  C   UNL     1      98.845  -5.679  31.563  0.00  0.00    +0.000 C 
BRANCH  28  29
ATOM     29  O   UNL     1      98.912  -4.780  32.664  0.00  0.00    +0.000 OA
ATOM     30  C   UNL     1      98.778  -5.463  33.903  0.00  0.00    +0.000 C 
ENDBRANCH  28  29
ENDBRANCH  27  28
ENDBRANCH  26  27
ENDBRANCH  21  26
ENDBRANCH   2  20
TORSDOF 6
