REMARK VINA RESULT:      -4.7     14.376     15.874
REMARK  Name = 168679856
REMARK  8 active torsions:
REMARK  status: ('A' for Active; 'I' for Inactive)
REMARK    1  A    between atoms: O_4  and  C_23
REMARK    2  A    between atoms: O_4  and  C_28
REMARK    3  A    between atoms: O_5  and  C_24
REMARK    4  A    between atoms: O_5  and  C_29
REMARK    5  A    between atoms: N_10  and  C_19
REMARK    6  A    between atoms: C_14  and  C_18
REMARK    7  A    between atoms: C_16  and  C_20
REMARK    8  A    between atoms: C_23  and  C_24
REMARK                            x       y       z     vdW  Elec       q    Type
REMARK                         _______ _______ _______ _____ _____    ______ ____
ROOT
ATOM      1  N   UNL     1     100.516   5.371  27.224  0.00  0.00    +0.000 N 
ATOM      2  N   UNL     1     100.297   3.108  27.717  0.00  0.00    +0.000 NA
ATOM      3  N   UNL     1      98.514   4.333  26.654  0.00  0.00    +0.000 NA
ATOM      4  N   UNL     1     101.104   7.492  26.922  0.00  0.00    +0.000 NA
ATOM      5  C   UNL     1      99.516   2.009  27.676  0.00  0.00    +0.000 A 
ATOM      6  C   UNL     1      99.741   4.219  27.197  0.00  0.00    +0.000 A 
ATOM      7  C   UNL     1      97.788   3.195  26.646  0.00  0.00    +0.000 A 
ATOM      8  C   UNL     1      98.243   1.992  27.147  0.00  0.00    +0.000 A 
ATOM      9  C   UNL     1     101.782   5.484  27.725  0.00  0.00    +0.000 A 
ATOM     10  C   UNL     1     100.151   6.602  26.753  0.00  0.00    +0.000 A 
ATOM     11  C   UNL     1     102.124   6.801  27.528  0.00  0.00    +0.000 A 
ENDROOT
BRANCH   7  15
ATOM     12  F   UNL     1      95.469   3.699  26.936  0.00  0.00    +0.000 F 
ATOM     13  F   UNL     1      96.356   4.142  25.001  0.00  0.00    +0.000 F 
ATOM     14  F   UNL     1      95.959   2.083  25.574  0.00  0.00    +0.000 F 
ATOM     15  C   UNL     1      96.421   3.276  26.053  0.00  0.00    +0.000 C 
ENDBRANCH   7  15
BRANCH   5  18
ATOM     16  O   UNL     1     101.331   0.725  28.364  0.00  0.00    +0.000 OA
ATOM     17  N   UNL     1      99.194  -0.226  28.619  0.00  0.00    +0.000 N 
ATOM     18  C   UNL     1     100.111   0.771  28.246  0.00  0.00    +0.000 C 
ATOM     19  H   UNL     1      98.210  -0.023  28.454  0.00  0.00    +0.000 HD
BRANCH  17  22
ATOM     20  N   UNL     1      99.955  -2.795  31.135  0.00  0.00    +0.000 NA
ATOM     21  N   UNL     1      99.748  -3.842  28.976  0.00  0.00    +0.000 NA
ATOM     22  C   UNL     1      99.458  -1.464  29.194  0.00  0.00    +0.000 A 
ATOM     23  C   UNL     1      99.697  -1.610  30.545  0.00  0.00    +0.000 A 
ATOM     24  C   UNL     1      99.496  -2.626  28.451  0.00  0.00    +0.000 A 
ATOM     25  C   UNL     1      99.965  -3.855  30.305  0.00  0.00    +0.000 A 
BRANCH  25  26
ATOM     26  O   UNL     1     100.224  -5.080  30.873  0.00  0.00    +0.000 OA
BRANCH  26  27
ATOM     27  C   UNL     1      99.374  -5.476  31.941  0.00  0.00    +0.000 C 
BRANCH  27  28
ATOM     28  C   UNL     1      97.974  -5.700  31.401  0.00  0.00    +0.000 C 
BRANCH  28  29
ATOM     29  O   UNL     1      97.062  -4.886  32.126  0.00  0.00    +0.000 OA
ATOM     30  C   UNL     1      96.457  -3.910  31.289  0.00  0.00    +0.000 C 
ENDBRANCH  28  29
ENDBRANCH  27  28
ENDBRANCH  26  27
ENDBRANCH  25  26
ENDBRANCH  17  22
ENDBRANCH   5  18
TORSDOF 7
