REMARK VINA RESULT:      -5.9      0.000      0.000
REMARK  Name = 155598690
REMARK  7 active torsions:
REMARK  status: ('A' for Active; 'I' for Inactive)
REMARK    1  A    between atoms: O_1  and  C_11
REMARK    2  A    between atoms: O_1  and  C_16
REMARK    3  A    between atoms: O_3  and  C_19
REMARK    4  A    between atoms: O_3  and  C_25
REMARK    5  A    between atoms: N_4  and  C_10
REMARK    6  A    between atoms: C_16  and  C_19
REMARK    7  A    between atoms: C_17  and  C_18
REMARK                            x       y       z     vdW  Elec       q    Type
REMARK                         _______ _______ _______ _____ _____    ______ ____
ROOT
ATOM      1  O   UNL     1      85.007  -1.129  23.615  0.00  0.00    +0.000 OA
ATOM      2  N   UNL     1      86.030   0.660  22.552  0.00  0.00    +0.000 N 
ATOM      3  C   UNL     1      85.314   0.059  23.576  0.00  0.00    +0.000 C 
ATOM      4  H   UNL     1      86.188   1.664  22.583  0.00  0.00    +0.000 HD
ENDROOT
BRANCH   3  10
ATOM      5  N   UNL     1      84.654   2.254  24.385  0.00  0.00    +0.000 NA
ATOM      6  N   UNL     1      84.856  -0.679  26.597  0.00  0.00    +0.000 N 
ATOM      7  N   UNL     1      84.064   2.751  26.693  0.00  0.00    +0.000 NA
ATOM      8  N   UNL     1      84.037   4.390  25.053  0.00  0.00    +0.000 N 
ATOM      9  N   UNL     1      83.511   6.536  25.274  0.00  0.00    +0.000 NA
ATOM     10  C   UNL     1      84.885   0.956  24.679  0.00  0.00    +0.000 A 
ATOM     11  C   UNL     1      84.709   0.539  25.986  0.00  0.00    +0.000 A 
ATOM     12  C   UNL     1      84.303   1.444  26.963  0.00  0.00    +0.000 A 
ATOM     13  C   UNL     1      84.263   3.061  25.396  0.00  0.00    +0.000 A 
ATOM     14  C   UNL     1      84.208   0.739  28.187  0.00  0.00    +0.000 A 
ATOM     15  C   UNL     1      84.555  -0.570  27.932  0.00  0.00    +0.000 A 
ATOM     16  C   UNL     1      84.171   4.938  23.809  0.00  0.00    +0.000 A 
ATOM     17  C   UNL     1      83.639   5.387  25.899  0.00  0.00    +0.000 A 
ATOM     18  C   UNL     1      83.841   6.263  23.971  0.00  0.00    +0.000 A 
ATOM     19  H   UNL     1      85.144  -1.533  26.137  0.00  0.00    +0.000 HD
ENDBRANCH   3  10
BRANCH   2  20
ATOM     20  C   UNL     1      86.494  -0.072  21.398  0.00  0.00    +0.000 C 
ATOM     21  C   UNL     1      87.236  -0.236  18.545  0.00  0.00    +0.000 C 
ATOM     22  C   UNL     1      85.426  -0.079  20.301  0.00  0.00    +0.000 C 
ATOM     23  C   UNL     1      87.819   0.504  20.889  0.00  0.00    +0.000 C 
ATOM     24  C   UNL     1      85.915  -0.809  19.053  0.00  0.00    +0.000 C 
ATOM     25  C   UNL     1      88.300  -0.228  19.640  0.00  0.00    +0.000 C 
BRANCH  21  26
ATOM     26  O   UNL     1      87.710  -1.019  17.455  0.00  0.00    +0.000 OA
BRANCH  26  27
ATOM     27  C   UNL     1      88.946  -0.528  16.959  0.00  0.00    +0.000 C 
BRANCH  27  28
ATOM     28  C   UNL     1      88.673   0.557  15.934  0.00  0.00    +0.000 C 
BRANCH  28  29
ATOM     29  O   UNL     1      89.912   1.043  15.432  0.00  0.00    +0.000 OA
ATOM     30  C   UNL     1      91.009   0.548  16.188  0.00  0.00    +0.000 C 
ENDBRANCH  28  29
ENDBRANCH  27  28
ENDBRANCH  26  27
ENDBRANCH  21  26
ENDBRANCH   2  20
TORSDOF 6
