REMARK VINA RESULT:      -5.1      3.380      9.687
REMARK  Name = 155598690
REMARK  7 active torsions:
REMARK  status: ('A' for Active; 'I' for Inactive)
REMARK    1  A    between atoms: O_1  and  C_11
REMARK    2  A    between atoms: O_1  and  C_16
REMARK    3  A    between atoms: O_3  and  C_19
REMARK    4  A    between atoms: O_3  and  C_25
REMARK    5  A    between atoms: N_4  and  C_10
REMARK    6  A    between atoms: C_16  and  C_19
REMARK    7  A    between atoms: C_17  and  C_18
REMARK                            x       y       z     vdW  Elec       q    Type
REMARK                         _______ _______ _______ _____ _____    ______ ____
ROOT
ATOM      1  O   UNL     1      84.538  -0.091  20.152  0.00  0.00    +0.000 OA
ATOM      2  N   UNL     1      86.101  -0.140  21.864  0.00  0.00    +0.000 N 
ATOM      3  C   UNL     1      85.692  -0.242  20.544  0.00  0.00    +0.000 C 
ATOM      4  H   UNL     1      87.072  -0.335  22.097  0.00  0.00    +0.000 HD
ENDROOT
BRANCH   3  10
ATOM      5  N   UNL     1      87.574  -1.614  19.849  0.00  0.00    +0.000 NA
ATOM      6  N   UNL     1      86.304   1.166  17.800  0.00  0.00    +0.000 N 
ATOM      7  N   UNL     1      88.803  -1.315  17.769  0.00  0.00    +0.000 NA
ATOM      8  N   UNL     1      89.360  -2.984  19.281  0.00  0.00    +0.000 N 
ATOM      9  N   UNL     1      90.986  -4.487  19.117  0.00  0.00    +0.000 NA
ATOM     10  C   UNL     1      86.753  -0.581  19.561  0.00  0.00    +0.000 A 
ATOM     11  C   UNL     1      86.948   0.100  18.373  0.00  0.00    +0.000 A 
ATOM     12  C   UNL     1      87.966  -0.282  17.504  0.00  0.00    +0.000 A 
ATOM     13  C   UNL     1      88.536  -1.914  18.948  0.00  0.00    +0.000 A 
ATOM     14  C   UNL     1      87.922   0.585  16.385  0.00  0.00    +0.000 A 
ATOM     15  C   UNL     1      86.886   1.469  16.595  0.00  0.00    +0.000 A 
ATOM     16  C   UNL     1      89.284  -3.741  20.414  0.00  0.00    +0.000 A 
ATOM     17  C   UNL     1      90.396  -3.469  18.532  0.00  0.00    +0.000 A 
ATOM     18  C   UNL     1      90.297  -4.663  20.291  0.00  0.00    +0.000 A 
ATOM     19  H   UNL     1      85.517   1.658  18.203  0.00  0.00    +0.000 HD
ENDBRANCH   3  10
BRANCH   2  20
ATOM     20  C   UNL     1      85.185   0.158  22.939  0.00  0.00    +0.000 C 
ATOM     21  C   UNL     1      84.488   0.286  25.805  0.00  0.00    +0.000 C 
ATOM     22  C   UNL     1      84.858  -1.110  23.732  0.00  0.00    +0.000 C 
ATOM     23  C   UNL     1      85.750   1.256  23.843  0.00  0.00    +0.000 C 
ATOM     24  C   UNL     1      83.925  -0.810  24.902  0.00  0.00    +0.000 C 
ATOM     25  C   UNL     1      84.814   1.549  25.013  0.00  0.00    +0.000 C 
BRANCH  21  26
ATOM     26  O   UNL     1      83.536   0.612  26.811  0.00  0.00    +0.000 OA
BRANCH  26  27
ATOM     27  C   UNL     1      83.871   1.823  27.473  0.00  0.00    +0.000 C 
BRANCH  27  28
ATOM     28  C   UNL     1      82.603   2.614  27.731  0.00  0.00    +0.000 C 
BRANCH  28  29
ATOM     29  O   UNL     1      82.659   3.832  26.998  0.00  0.00    +0.000 OA
ATOM     30  C   UNL     1      83.915   4.478  27.157  0.00  0.00    +0.000 C 
ENDBRANCH  28  29
ENDBRANCH  27  28
ENDBRANCH  26  27
ENDBRANCH  21  26
ENDBRANCH   2  20
TORSDOF 6
