REMARK VINA RESULT:      -4.9      4.460      9.697
REMARK  Name = 168679856
REMARK  8 active torsions:
REMARK  status: ('A' for Active; 'I' for Inactive)
REMARK    1  A    between atoms: O_4  and  C_23
REMARK    2  A    between atoms: O_4  and  C_28
REMARK    3  A    between atoms: O_5  and  C_24
REMARK    4  A    between atoms: O_5  and  C_29
REMARK    5  A    between atoms: N_10  and  C_19
REMARK    6  A    between atoms: C_14  and  C_18
REMARK    7  A    between atoms: C_16  and  C_20
REMARK    8  A    between atoms: C_23  and  C_24
REMARK                            x       y       z     vdW  Elec       q    Type
REMARK                         _______ _______ _______ _____ _____    ______ ____
ROOT
ATOM      1  N   UNL     1      89.235  -2.472  18.692  0.00  0.00    +0.000 N 
ATOM      2  N   UNL     1      87.543  -1.577  20.016  0.00  0.00    +0.000 NA
ATOM      3  N   UNL     1      88.049  -0.659  17.846  0.00  0.00    +0.000 NA
ATOM      4  N   UNL     1      90.902  -3.593  17.745  0.00  0.00    +0.000 NA
ATOM      5  C   UNL     1      86.578  -0.645  20.145  0.00  0.00    +0.000 A 
ATOM      6  C   UNL     1      88.230  -1.528  18.859  0.00  0.00    +0.000 A 
ATOM      7  C   UNL     1      87.066   0.246  18.042  0.00  0.00    +0.000 A 
ATOM      8  C   UNL     1      86.291   0.300  19.182  0.00  0.00    +0.000 A 
ATOM      9  C   UNL     1      89.590  -3.443  19.587  0.00  0.00    +0.000 A 
ATOM     10  C   UNL     1      90.050  -2.602  17.603  0.00  0.00    +0.000 A 
ATOM     11  C   UNL     1      90.620  -4.121  18.981  0.00  0.00    +0.000 A 
ENDROOT
BRANCH   7  15
ATOM     12  F   UNL     1      87.799   1.209  15.980  0.00  0.00    +0.000 F 
ATOM     13  F   UNL     1      85.656   1.007  16.286  0.00  0.00    +0.000 F 
ATOM     14  F   UNL     1      86.774   2.524  17.368  0.00  0.00    +0.000 F 
ATOM     15  C   UNL     1      86.831   1.227  16.943  0.00  0.00    +0.000 C 
ENDBRANCH   7  15
BRANCH   5  18
ATOM     16  O   UNL     1      85.386  -1.769  21.797  0.00  0.00    +0.000 OA
ATOM     17  N   UNL     1      85.660   0.552  22.071  0.00  0.00    +0.000 N 
ATOM     18  C   UNL     1      85.807  -0.682  21.416  0.00  0.00    +0.000 C 
ATOM     19  H   UNL     1      86.076   1.361  21.616  0.00  0.00    +0.000 HD
BRANCH  17  22
ATOM     20  N   UNL     1      85.112   1.170  25.654  0.00  0.00    +0.000 NA
ATOM     21  N   UNL     1      82.994   1.241  24.507  0.00  0.00    +0.000 NA
ATOM     22  C   UNL     1      85.017   0.813  23.276  0.00  0.00    +0.000 A 
ATOM     23  C   UNL     1      85.704   0.917  24.468  0.00  0.00    +0.000 A 
ATOM     24  C   UNL     1      83.650   0.986  23.357  0.00  0.00    +0.000 A 
ATOM     25  C   UNL     1      83.775   1.319  25.602  0.00  0.00    +0.000 A 
BRANCH  25  26
ATOM     26  O   UNL     1      83.138   1.580  26.793  0.00  0.00    +0.000 OA
BRANCH  26  27
ATOM     27  C   UNL     1      83.757   2.530  27.648  0.00  0.00    +0.000 C 
BRANCH  27  28
ATOM     28  C   UNL     1      83.160   3.899  27.380  0.00  0.00    +0.000 C 
BRANCH  28  29
ATOM     29  O   UNL     1      84.201   4.796  27.016  0.00  0.00    +0.000 OA
ATOM     30  C   UNL     1      84.204   5.050  25.618  0.00  0.00    +0.000 C 
ENDBRANCH  28  29
ENDBRANCH  27  28
ENDBRANCH  26  27
ENDBRANCH  25  26
ENDBRANCH  17  22
ENDBRANCH   5  18
TORSDOF 7
