REMARK VINA RESULT:      -5.6      2.146      3.774
REMARK  Name = 168679856
REMARK  8 active torsions:
REMARK  status: ('A' for Active; 'I' for Inactive)
REMARK    1  A    between atoms: O_4  and  C_23
REMARK    2  A    between atoms: O_4  and  C_28
REMARK    3  A    between atoms: O_5  and  C_24
REMARK    4  A    between atoms: O_5  and  C_29
REMARK    5  A    between atoms: N_10  and  C_19
REMARK    6  A    between atoms: C_14  and  C_18
REMARK    7  A    between atoms: C_16  and  C_20
REMARK    8  A    between atoms: C_23  and  C_24
REMARK                            x       y       z     vdW  Elec       q    Type
REMARK                         _______ _______ _______ _____ _____    ______ ____
ROOT
ATOM      1  N   UNL     1      85.015  -0.360  27.370  0.00  0.00    +0.000 N 
ATOM      2  N   UNL     1      85.351  -0.255  25.070  0.00  0.00    +0.000 NA
ATOM      3  N   UNL     1      84.529   1.648  26.301  0.00  0.00    +0.000 NA
ATOM      4  N   UNL     1      84.829  -0.853  29.528  0.00  0.00    +0.000 NA
ATOM      5  C   UNL     1      85.286   0.490  23.947  0.00  0.00    +0.000 A 
ATOM      6  C   UNL     1      84.963   0.378  26.194  0.00  0.00    +0.000 A 
ATOM      7  C   UNL     1      84.490   2.334  25.139  0.00  0.00    +0.000 A 
ATOM      8  C   UNL     1      84.861   1.802  23.921  0.00  0.00    +0.000 A 
ATOM      9  C   UNL     1      85.420  -1.659  27.494  0.00  0.00    +0.000 A 
ATOM     10  C   UNL     1      84.670   0.081  28.617  0.00  0.00    +0.000 A 
ATOM     11  C   UNL     1      85.297  -1.941  28.833  0.00  0.00    +0.000 A 
ENDROOT
BRANCH   7  15
ATOM     12  F   UNL     1      84.634   4.479  26.185  0.00  0.00    +0.000 F 
ATOM     13  F   UNL     1      84.226   4.431  24.050  0.00  0.00    +0.000 F 
ATOM     14  F   UNL     1      82.680   3.865  25.469  0.00  0.00    +0.000 F 
ATOM     15  C   UNL     1      84.016   3.747  25.211  0.00  0.00    +0.000 C 
ENDBRANCH   7  15
BRANCH   5  18
ATOM     16  O   UNL     1      85.314  -1.334  22.503  0.00  0.00    +0.000 OA
ATOM     17  N   UNL     1      86.515   0.575  21.834  0.00  0.00    +0.000 N 
ATOM     18  C   UNL     1      85.710  -0.189  22.695  0.00  0.00    +0.000 C 
ATOM     19  H   UNL     1      86.751   1.514  22.146  0.00  0.00    +0.000 HD
BRANCH  17  22
ATOM     20  N   UNL     1      86.734  -0.147  18.236  0.00  0.00    +0.000 NA
ATOM     21  N   UNL     1      88.890  -0.512  19.247  0.00  0.00    +0.000 NA
ATOM     22  C   UNL     1      87.035   0.212  20.596  0.00  0.00    +0.000 A 
ATOM     23  C   UNL     1      86.263   0.199  19.452  0.00  0.00    +0.000 A 
ATOM     24  C   UNL     1      88.354  -0.156  20.432  0.00  0.00    +0.000 A 
ATOM     25  C   UNL     1      88.037  -0.486  18.205  0.00  0.00    +0.000 A 
BRANCH  25  26
ATOM     26  O   UNL     1      88.552  -0.843  16.980  0.00  0.00    +0.000 OA
BRANCH  26  27
ATOM     27  C   UNL     1      89.539   0.019  16.432  0.00  0.00    +0.000 C 
BRANCH  27  28
ATOM     28  C   UNL     1      90.731  -0.810  15.993  0.00  0.00    +0.000 C 
BRANCH  28  29
ATOM     29  O   UNL     1      91.484  -1.183  17.140  0.00  0.00    +0.000 OA
ATOM     30  C   UNL     1      91.627  -2.593  17.233  0.00  0.00    +0.000 C 
ENDBRANCH  28  29
ENDBRANCH  27  28
ENDBRANCH  26  27
ENDBRANCH  25  26
ENDBRANCH  17  22
ENDBRANCH   5  18
TORSDOF 7
