REMARK VINA RESULT:      -5.0      5.459     10.428
REMARK  Name = 118736856
REMARK  9 active torsions:
REMARK  status: ('A' for Active; 'I' for Inactive)
REMARK    1  A    between atoms: O_2  and  C_11
REMARK    2  A    between atoms: O_2  and  C_15
REMARK    3  A    between atoms: O_3  and  C_19
REMARK    4  A    between atoms: O_3  and  C_27
REMARK    5  A    between atoms: N_5  and  C_8
REMARK    6  A    between atoms: N_5  and  C_14
REMARK    7  A    between atoms: N_6  and  C_25
REMARK    8  A    between atoms: C_15  and  C_19
REMARK    9  A    between atoms: C_23  and  C_26
REMARK                            x       y       z     vdW  Elec       q    Type
REMARK                         _______ _______ _______ _____ _____    ______ ____
ROOT
ATOM      1  O   UNL     1      85.151  -2.433  29.081  0.00  0.00    +0.000 OA
ATOM      2  N   UNL     1      85.158  -0.959  27.276  0.00  0.00    +0.000 N 
ATOM      3  C   UNL     1      83.991   0.937  29.059  0.00  0.00    +0.000 A 
ATOM      4  C   UNL     1      84.268   1.303  27.650  0.00  0.00    +0.000 A 
ATOM      5  C   UNL     1      84.302  -0.300  29.470  0.00  0.00    +0.000 A 
ATOM      6  C   UNL     1      84.846   0.349  26.783  0.00  0.00    +0.000 A 
ATOM      7  C   UNL     1      83.971   2.582  27.137  0.00  0.00    +0.000 A 
ATOM      8  C   UNL     1      84.909  -1.328  28.594  0.00  0.00    +0.000 A 
ATOM      9  C   UNL     1      85.107   0.703  25.444  0.00  0.00    +0.000 A 
ATOM     10  C   UNL     1      84.236   2.914  25.808  0.00  0.00    +0.000 A 
ATOM     11  C   UNL     1      84.805   1.975  24.962  0.00  0.00    +0.000 A 
ATOM     12  C   UNL     1      85.757  -1.935  26.367  0.00  0.00    +0.000 C 
ENDROOT
BRANCH  10  15
ATOM     13  S   UNL     1      83.099   4.415  23.820  0.00  0.00    +0.000 S 
ATOM     14  N   UNL     1      83.737   6.557  25.120  0.00  0.00    +0.000 NA
ATOM     15  C   UNL     1      83.922   4.232  25.314  0.00  0.00    +0.000 A 
ATOM     16  C   UNL     1      84.175   5.474  25.858  0.00  0.00    +0.000 A 
ATOM     17  C   UNL     1      83.155   6.118  24.026  0.00  0.00    +0.000 A 
ENDBRANCH  10  15
BRANCH   3  18
ATOM     18  N   UNL     1      83.432   1.851  29.911  0.00  0.00    +0.000 N 
ATOM     19  H   UNL     1      82.705   2.464  29.563  0.00  0.00    +0.000 HD
BRANCH  18  20
ATOM     20  C   UNL     1      83.693   1.873  31.333  0.00  0.00    +0.000 C 
ATOM     21  C   UNL     1      84.678   3.001  31.654  0.00  0.00    +0.000 C 
ATOM     22  C   UNL     1      82.376   2.047  32.092  0.00  0.00    +0.000 C 
ATOM     23  C   UNL     1      83.593   3.303  33.915  0.00  0.00    +0.000 C 
ATOM     24  C   UNL     1      84.907   3.128  33.157  0.00  0.00    +0.000 C 
ATOM     25  C   UNL     1      82.609   2.178  33.594  0.00  0.00    +0.000 C 
BRANCH  23  26
ATOM     26  O   UNL     1      83.871   3.311  35.311  0.00  0.00    +0.000 OA
BRANCH  26  27
ATOM     27  C   UNL     1      83.587   2.052  35.904  0.00  0.00    +0.000 C 
BRANCH  27  28
ATOM     28  C   UNL     1      84.876   1.452  36.432  0.00  0.00    +0.000 C 
BRANCH  28  29
ATOM     29  O   UNL     1      84.912   0.068  36.105  0.00  0.00    +0.000 OA
ATOM     30  C   UNL     1      85.431  -0.147  34.801  0.00  0.00    +0.000 C 
ENDBRANCH  28  29
ENDBRANCH  27  28
ENDBRANCH  26  27
ENDBRANCH  23  26
ENDBRANCH  18  20
ENDBRANCH   3  18
TORSDOF 7
