REMARK VINA RESULT:      -4.7      5.780      7.439
REMARK  Name = 118736856
REMARK  9 active torsions:
REMARK  status: ('A' for Active; 'I' for Inactive)
REMARK    1  A    between atoms: O_2  and  C_11
REMARK    2  A    between atoms: O_2  and  C_15
REMARK    3  A    between atoms: O_3  and  C_19
REMARK    4  A    between atoms: O_3  and  C_27
REMARK    5  A    between atoms: N_5  and  C_8
REMARK    6  A    between atoms: N_5  and  C_14
REMARK    7  A    between atoms: N_6  and  C_25
REMARK    8  A    between atoms: C_15  and  C_19
REMARK    9  A    between atoms: C_23  and  C_26
REMARK                            x       y       z     vdW  Elec       q    Type
REMARK                         _______ _______ _______ _____ _____    ______ ____
ROOT
ATOM      1  O   UNL     1      83.261  -0.005  32.581  0.00  0.00    +0.000 OA
ATOM      2  N   UNL     1      83.522   1.928  31.305  0.00  0.00    +0.000 N 
ATOM      3  C   UNL     1      83.267   0.234  29.024  0.00  0.00    +0.000 A 
ATOM      4  C   UNL     1      83.470   1.692  28.857  0.00  0.00    +0.000 A 
ATOM      5  C   UNL     1      83.206  -0.265  30.267  0.00  0.00    +0.000 A 
ATOM      6  C   UNL     1      83.594   2.513  29.999  0.00  0.00    +0.000 A 
ATOM      7  C   UNL     1      83.546   2.295  27.585  0.00  0.00    +0.000 A 
ATOM      8  C   UNL     1      83.331   0.562  31.490  0.00  0.00    +0.000 A 
ATOM      9  C   UNL     1      83.787   3.899  29.833  0.00  0.00    +0.000 A 
ATOM     10  C   UNL     1      83.738   3.670  27.441  0.00  0.00    +0.000 A 
ATOM     11  C   UNL     1      83.858   4.472  28.565  0.00  0.00    +0.000 A 
ATOM     12  C   UNL     1      83.652   2.792  32.477  0.00  0.00    +0.000 C 
ENDROOT
BRANCH  10  15
ATOM     13  S   UNL     1      83.505   3.293  24.739  0.00  0.00    +0.000 S 
ATOM     14  N   UNL     1      84.085   5.786  24.375  0.00  0.00    +0.000 NA
ATOM     15  C   UNL     1      83.809   4.256  26.125  0.00  0.00    +0.000 A 
ATOM     16  C   UNL     1      84.098   5.548  25.737  0.00  0.00    +0.000 A 
ATOM     17  C   UNL     1      83.785   4.668  23.751  0.00  0.00    +0.000 A 
ENDBRANCH  10  15
BRANCH   3  18
ATOM     18  N   UNL     1      83.144  -0.575  27.926  0.00  0.00    +0.000 N 
ATOM     19  H   UNL     1      82.316  -0.496  27.350  0.00  0.00    +0.000 HD
BRANCH  18  20
ATOM     20  C   UNL     1      84.214  -1.417  27.439  0.00  0.00    +0.000 C 
ATOM     21  C   UNL     1      85.563  -0.772  27.770  0.00  0.00    +0.000 C 
ATOM     22  C   UNL     1      84.092  -2.810  28.060  0.00  0.00    +0.000 C 
ATOM     23  C   UNL     1      86.605  -3.063  27.985  0.00  0.00    +0.000 C 
ATOM     24  C   UNL     1      86.725  -1.673  27.364  0.00  0.00    +0.000 C 
ATOM     25  C   UNL     1      85.258  -3.707  27.656  0.00  0.00    +0.000 C 
BRANCH  23  26
ATOM     26  O   UNL     1      87.660  -3.877  27.484  0.00  0.00    +0.000 OA
BRANCH  26  27
ATOM     27  C   UNL     1      88.103  -4.810  28.459  0.00  0.00    +0.000 C 
BRANCH  27  28
ATOM     28  C   UNL     1      88.244  -4.101  29.792  0.00  0.00    +0.000 C 
BRANCH  28  29
ATOM     29  O   UNL     1      89.477  -4.480  30.392  0.00  0.00    +0.000 OA
ATOM     30  C   UNL     1      90.258  -3.346  30.740  0.00  0.00    +0.000 C 
ENDBRANCH  28  29
ENDBRANCH  27  28
ENDBRANCH  26  27
ENDBRANCH  23  26
ENDBRANCH  18  20
ENDBRANCH   3  18
TORSDOF 7
