REMARK VINA RESULT:      -4.8      4.565      9.708
REMARK  Name = 118736856
REMARK  9 active torsions:
REMARK  status: ('A' for Active; 'I' for Inactive)
REMARK    1  A    between atoms: O_2  and  C_11
REMARK    2  A    between atoms: O_2  and  C_15
REMARK    3  A    between atoms: O_3  and  C_19
REMARK    4  A    between atoms: O_3  and  C_27
REMARK    5  A    between atoms: N_5  and  C_8
REMARK    6  A    between atoms: N_5  and  C_14
REMARK    7  A    between atoms: N_6  and  C_25
REMARK    8  A    between atoms: C_15  and  C_19
REMARK    9  A    between atoms: C_23  and  C_26
REMARK                            x       y       z     vdW  Elec       q    Type
REMARK                         _______ _______ _______ _____ _____    ______ ____
ROOT
ATOM      1  O   UNL     1      84.234  -0.051  21.175  0.00  0.00    +0.000 OA
ATOM      2  N   UNL     1      84.694  -1.738  22.716  0.00  0.00    +0.000 N 
ATOM      3  C   UNL     1      85.122   0.359  24.603  0.00  0.00    +0.000 A 
ATOM      4  C   UNL     1      85.274  -1.058  25.008  0.00  0.00    +0.000 A 
ATOM      5  C   UNL     1      84.779   0.627  23.335  0.00  0.00    +0.000 A 
ATOM      6  C   UNL     1      85.058  -2.081  24.059  0.00  0.00    +0.000 A 
ATOM      7  C   UNL     1      85.632  -1.426  26.321  0.00  0.00    +0.000 A 
ATOM      8  C   UNL     1      84.544  -0.416  22.310  0.00  0.00    +0.000 A 
ATOM      9  C   UNL     1      85.205  -3.427  24.450  0.00  0.00    +0.000 A 
ATOM     10  C   UNL     1      85.773  -2.765  26.690  0.00  0.00    +0.000 A 
ATOM     11  C   UNL     1      85.558  -3.765  25.755  0.00  0.00    +0.000 A 
ATOM     12  C   UNL     1      84.473  -2.808  21.745  0.00  0.00    +0.000 C 
ENDROOT
BRANCH  10  15
ATOM     13  S   UNL     1      87.471  -4.150  28.332  0.00  0.00    +0.000 S 
ATOM     14  N   UNL     1      86.178  -3.243  30.378  0.00  0.00    +0.000 NA
ATOM     15  C   UNL     1      86.139  -3.108  28.042  0.00  0.00    +0.000 A 
ATOM     16  C   UNL     1      85.579  -2.728  29.244  0.00  0.00    +0.000 A 
ATOM     17  C   UNL     1      87.185  -4.006  30.018  0.00  0.00    +0.000 A 
ENDBRANCH  10  15
BRANCH   3  18
ATOM     18  N   UNL     1      85.327   1.361  25.512  0.00  0.00    +0.000 N 
ATOM     19  H   UNL     1      86.249   1.771  25.589  0.00  0.00    +0.000 HD
BRANCH  18  20
ATOM     20  C   UNL     1      84.256   1.995  26.249  0.00  0.00    +0.000 C 
ATOM     21  C   UNL     1      84.197   1.416  27.665  0.00  0.00    +0.000 C 
ATOM     22  C   UNL     1      84.478   3.509  26.272  0.00  0.00    +0.000 C 
ATOM     23  C   UNL     1      83.368   3.636  28.539  0.00  0.00    +0.000 C 
ATOM     24  C   UNL     1      83.147   2.125  28.514  0.00  0.00    +0.000 C 
ATOM     25  C   UNL     1      83.428   4.215  27.125  0.00  0.00    +0.000 C 
BRANCH  23  26
ATOM     26  O   UNL     1      82.298   4.240  29.258  0.00  0.00    +0.000 OA
BRANCH  26  27
ATOM     27  C   UNL     1      82.523   4.192  30.660  0.00  0.00    +0.000 C 
BRANCH  27  28
ATOM     28  C   UNL     1      83.905   4.741  30.957  0.00  0.00    +0.000 C 
BRANCH  28  29
ATOM     29  O   UNL     1      84.655   3.757  31.659  0.00  0.00    +0.000 OA
ATOM     30  C   UNL     1      83.806   2.851  32.351  0.00  0.00    +0.000 C 
ENDBRANCH  28  29
ENDBRANCH  27  28
ENDBRANCH  26  27
ENDBRANCH  23  26
ENDBRANCH  18  20
ENDBRANCH   3  18
TORSDOF 7
