REMARK VINA RESULT:      -4.8     13.885     15.241
REMARK  Name = 168679856
REMARK  8 active torsions:
REMARK  status: ('A' for Active; 'I' for Inactive)
REMARK    1  A    between atoms: O_4  and  C_23
REMARK    2  A    between atoms: O_4  and  C_28
REMARK    3  A    between atoms: O_5  and  C_24
REMARK    4  A    between atoms: O_5  and  C_29
REMARK    5  A    between atoms: N_10  and  C_19
REMARK    6  A    between atoms: C_14  and  C_18
REMARK    7  A    between atoms: C_16  and  C_20
REMARK    8  A    between atoms: C_23  and  C_24
REMARK                            x       y       z     vdW  Elec       q    Type
REMARK                         _______ _______ _______ _____ _____    ______ ____
ROOT
ATOM      1  N   UNL     1      96.531   4.126  27.851  0.00  0.00    +0.000 N 
ATOM      2  N   UNL     1      98.248   2.556  27.927  0.00  0.00    +0.000 NA
ATOM      3  N   UNL     1      98.584   4.728  26.937  0.00  0.00    +0.000 NA
ATOM      4  N   UNL     1      94.669   5.330  27.972  0.00  0.00    +0.000 NA
ATOM      5  C   UNL     1      99.529   2.262  27.626  0.00  0.00    +0.000 A 
ATOM      6  C   UNL     1      97.847   3.788  27.559  0.00  0.00    +0.000 A 
ATOM      7  C   UNL     1      99.856   4.366  26.667  0.00  0.00    +0.000 A 
ATOM      8  C   UNL     1     100.388   3.135  26.992  0.00  0.00    +0.000 A 
ATOM      9  C   UNL     1      95.611   3.330  28.474  0.00  0.00    +0.000 A 
ATOM     10  C   UNL     1      95.920   5.315  27.569  0.00  0.00    +0.000 A 
ATOM     11  C   UNL     1      94.470   4.094  28.537  0.00  0.00    +0.000 A 
ENDROOT
BRANCH   7  15
ATOM     12  F   UNL     1     101.071   6.422  26.782  0.00  0.00    +0.000 F 
ATOM     13  F   UNL     1     101.878   4.850  25.514  0.00  0.00    +0.000 F 
ATOM     14  F   UNL     1     100.111   5.953  24.893  0.00  0.00    +0.000 F 
ATOM     15  C   UNL     1     100.709   5.378  25.978  0.00  0.00    +0.000 C 
ENDBRANCH   7  15
BRANCH   5  18
ATOM     16  O   UNL     1     101.199   0.730  28.156  0.00  0.00    +0.000 OA
ATOM     17  N   UNL     1      98.978  -0.044  28.231  0.00  0.00    +0.000 N 
ATOM     18  C   UNL     1      99.992   0.906  28.023  0.00  0.00    +0.000 C 
ATOM     19  H   UNL     1      98.022   0.270  28.078  0.00  0.00    +0.000 HD
BRANCH  17  22
ATOM     20  N   UNL     1      99.503  -2.999  30.355  0.00  0.00    +0.000 NA
ATOM     21  N   UNL     1      99.116  -3.715  28.087  0.00  0.00    +0.000 NA
ATOM     22  C   UNL     1      99.111  -1.370  28.627  0.00  0.00    +0.000 A 
ATOM     23  C   UNL     1      99.369  -1.723  29.936  0.00  0.00    +0.000 A 
ATOM     24  C   UNL     1      98.993  -2.418  27.738  0.00  0.00    +0.000 A 
ATOM     25  C   UNL     1      99.367  -3.931  29.393  0.00  0.00    +0.000 A 
BRANCH  25  26
ATOM     26  O   UNL     1      99.496  -5.243  29.784  0.00  0.00    +0.000 OA
BRANCH  26  27
ATOM     27  C   UNL     1      98.603  -5.695  30.792  0.00  0.00    +0.000 C 
BRANCH  27  28
ATOM     28  C   UNL     1      97.192  -5.700  30.236  0.00  0.00    +0.000 C 
BRANCH  28  29
ATOM     29  O   UNL     1      96.421  -4.718  30.917  0.00  0.00    +0.000 OA
ATOM     30  C   UNL     1      95.753  -3.857  30.005  0.00  0.00    +0.000 C 
ENDBRANCH  28  29
ENDBRANCH  27  28
ENDBRANCH  26  27
ENDBRANCH  25  26
ENDBRANCH  17  22
ENDBRANCH   5  18
TORSDOF 7
