REMARK VINA RESULT:      -5.4      3.560      4.734
REMARK  Name = 168679856
REMARK  8 active torsions:
REMARK  status: ('A' for Active; 'I' for Inactive)
REMARK    1  A    between atoms: O_4  and  C_23
REMARK    2  A    between atoms: O_4  and  C_28
REMARK    3  A    between atoms: O_5  and  C_24
REMARK    4  A    between atoms: O_5  and  C_29
REMARK    5  A    between atoms: N_10  and  C_19
REMARK    6  A    between atoms: C_14  and  C_18
REMARK    7  A    between atoms: C_16  and  C_20
REMARK    8  A    between atoms: C_23  and  C_24
REMARK                            x       y       z     vdW  Elec       q    Type
REMARK                         _______ _______ _______ _____ _____    ______ ____
ROOT
ATOM      1  N   UNL     1      83.446   2.864  28.694  0.00  0.00    +0.000 N 
ATOM      2  N   UNL     1      84.294   1.930  26.738  0.00  0.00    +0.000 NA
ATOM      3  N   UNL     1      83.739   4.272  26.866  0.00  0.00    +0.000 NA
ATOM      4  N   UNL     1      82.670   3.369  30.713  0.00  0.00    +0.000 NA
ATOM      5  C   UNL     1      84.671   2.127  25.458  0.00  0.00    +0.000 A 
ATOM      6  C   UNL     1      83.845   3.030  27.374  0.00  0.00    +0.000 A 
ATOM      7  C   UNL     1      84.133   4.397  25.581  0.00  0.00    +0.000 A 
ATOM      8  C   UNL     1      84.613   3.349  24.822  0.00  0.00    +0.000 A 
ATOM      9  C   UNL     1      83.466   1.697  29.405  0.00  0.00    +0.000 A 
ATOM     10  C   UNL     1      82.960   3.839  29.520  0.00  0.00    +0.000 A 
ATOM     11  C   UNL     1      82.984   2.034  30.648  0.00  0.00    +0.000 A 
ENDROOT
BRANCH   7  15
ATOM     12  F   UNL     1      84.248   5.773  23.630  0.00  0.00    +0.000 F 
ATOM     13  F   UNL     1      82.806   6.324  25.160  0.00  0.00    +0.000 F 
ATOM     14  F   UNL     1      84.928   6.653  25.493  0.00  0.00    +0.000 F 
ATOM     15  C   UNL     1      84.034   5.759  24.978  0.00  0.00    +0.000 C 
ENDBRANCH   7  15
BRANCH   5  18
ATOM     16  O   UNL     1      85.369  -0.091  25.394  0.00  0.00    +0.000 OA
ATOM     17  N   UNL     1      85.342   1.078  23.353  0.00  0.00    +0.000 N 
ATOM     18  C   UNL     1      85.170   0.926  24.739  0.00  0.00    +0.000 C 
ATOM     19  H   UNL     1      85.126   1.994  22.966  0.00  0.00    +0.000 HD
BRANCH  17  22
ATOM     20  N   UNL     1      85.496  -2.015  21.372  0.00  0.00    +0.000 NA
ATOM     21  N   UNL     1      87.313  -0.571  20.725  0.00  0.00    +0.000 NA
ATOM     22  C   UNL     1      85.767   0.129  22.430  0.00  0.00    +0.000 A 
ATOM     23  C   UNL     1      85.111  -1.072  22.257  0.00  0.00    +0.000 A 
ATOM     24  C   UNL     1      86.873   0.327  21.629  0.00  0.00    +0.000 A 
ATOM     25  C   UNL     1      86.589  -1.704  20.649  0.00  0.00    +0.000 A 
BRANCH  25  26
ATOM     26  O   UNL     1      87.010  -2.642  19.735  0.00  0.00    +0.000 OA
BRANCH  26  27
ATOM     27  C   UNL     1      88.395  -2.955  19.740  0.00  0.00    +0.000 C 
BRANCH  27  28
ATOM     28  C   UNL     1      88.657  -4.022  20.785  0.00  0.00    +0.000 C 
BRANCH  28  29
ATOM     29  O   UNL     1      90.017  -3.947  21.196  0.00  0.00    +0.000 OA
ATOM     30  C   UNL     1      90.875  -4.612  20.280  0.00  0.00    +0.000 C 
ENDBRANCH  28  29
ENDBRANCH  27  28
ENDBRANCH  26  27
ENDBRANCH  25  26
ENDBRANCH  17  22
ENDBRANCH   5  18
TORSDOF 7
