REMARK VINA RESULT:      -5.4      3.329      7.323
REMARK  Name = 441667
REMARK  12 active torsions:
REMARK  status: ('A' for Active; 'I' for Inactive)
REMARK    1  A    between atoms: O_2  and  C_16
REMARK    2  A    between atoms: O_2  and  C_18
REMARK    3  A    between atoms: O_3  and  C_12
REMARK    4  A    between atoms: O_4  and  C_13
REMARK    5  A    between atoms: O_5  and  C_14
REMARK    6  A    between atoms: O_6  and  C_17
REMARK    7  A    between atoms: O_8  and  C_24
REMARK    8  A    between atoms: O_9  and  C_29
REMARK    9  A    between atoms: O_10  and  C_30
REMARK   10  A    between atoms: O_11  and  C_32
REMARK   11  A    between atoms: C_15  and  C_17
REMARK   12  A    between atoms: C_19  and  C_23
REMARK                            x       y       z     vdW  Elec       q    Type
REMARK                         _______ _______ _______ _____ _____    ______ ____
ROOT
ATOM      1  O   UNL     1      84.147   1.261  27.712  0.00  0.00    +0.000 OA
ATOM      2  C   UNL     1      84.807   0.810  25.367  0.00  0.00    +0.000 A 
ATOM      3  C   UNL     1      84.189   1.625  26.461  0.00  0.00    +0.000 A 
ATOM      4  C   UNL     1      85.299  -0.386  25.715  0.00  0.00    +0.000 A 
ATOM      5  C   UNL     1      85.235  -0.843  27.099  0.00  0.00    +0.000 A 
ATOM      6  C   UNL     1      84.670   0.002  28.059  0.00  0.00    +0.000 A 
ATOM      7  C   UNL     1      85.736  -2.090  27.484  0.00  0.00    +0.000 A 
ATOM      8  C   UNL     1      84.605  -0.395  29.395  0.00  0.00    +0.000 A 
ATOM      9  C   UNL     1      85.670  -2.486  28.821  0.00  0.00    +0.000 A 
ATOM     10  C   UNL     1      85.106  -1.640  29.775  0.00  0.00    +0.000 A 
ENDROOT
BRANCH   3  11
ATOM     11  C   UNL     1      83.615   2.941  26.091  0.00  0.00    +0.000 A 
ATOM     12  C   UNL     1      84.429   4.068  26.082  0.00  0.00    +0.000 A 
ATOM     13  C   UNL     1      82.269   3.035  25.758  0.00  0.00    +0.000 A 
ATOM     14  C   UNL     1      83.888   5.306  25.733  0.00  0.00    +0.000 A 
ATOM     15  C   UNL     1      81.729   4.273  25.410  0.00  0.00    +0.000 A 
ATOM     16  C   UNL     1      82.539   5.409  25.397  0.00  0.00    +0.000 A 
BRANCH  14  17
ATOM     17  O   UNL     1      84.690   6.408  25.725  0.00  0.00    +0.000 OA
ATOM     18  H   UNL     1      85.029   6.532  24.821  0.00  0.00    +0.000 HD
ENDBRANCH  14  17
BRANCH  16  19
ATOM     19  O   UNL     1      81.999   6.612  25.057  0.00  0.00    +0.000 OA
ATOM     20  H   UNL     1      81.564   6.531  24.191  0.00  0.00    +0.000 HD
ENDBRANCH  16  19
ENDBRANCH   3  11
BRANCH   7  21
ATOM     21  O   UNL     1      86.299  -2.945  26.583  0.00  0.00    +0.000 OA
ATOM     22  H   UNL     1      85.657  -3.618  26.307  0.00  0.00    +0.000 HD
ENDBRANCH   7  21
BRANCH  10  23
ATOM     23  O   UNL     1      85.044  -2.029  31.078  0.00  0.00    +0.000 OA
ATOM     24  H   UNL     1      85.189  -1.252  31.646  0.00  0.00    +0.000 HD
ENDBRANCH  10  23
BRANCH   2  25
ATOM     25  O   UNL     1      84.898   1.314  24.090  0.00  0.00    +0.000 OA
BRANCH  25  31
ATOM     26  O   UNL     1      86.301   0.610  22.364  0.00  0.00    +0.000 OA
ATOM     27  C   UNL     1      84.158  -0.815  21.088  0.00  0.00    +0.000 C 
ATOM     28  C   UNL     1      85.485  -0.529  20.385  0.00  0.00    +0.000 C 
ATOM     29  C   UNL     1      83.918   0.166  22.236  0.00  0.00    +0.000 C 
ATOM     30  C   UNL     1      86.621  -0.397  21.402  0.00  0.00    +0.000 C 
ATOM     31  C   UNL     1      85.148   0.283  23.135  0.00  0.00    +0.000 C 
BRANCH  27  32
ATOM     32  O   UNL     1      83.111  -0.686  20.125  0.00  0.00    +0.000 OA
ATOM     33  H   UNL     1      83.354   0.024  19.507  0.00  0.00    +0.000 HD
ENDBRANCH  27  32
BRANCH  28  34
ATOM     34  O   UNL     1      85.780  -1.592  19.484  0.00  0.00    +0.000 OA
ATOM     35  H   UNL     1      85.118  -2.290  19.618  0.00  0.00    +0.000 HD
ENDBRANCH  28  34
BRANCH  29  36
ATOM     36  O   UNL     1      82.825  -0.295  23.032  0.00  0.00    +0.000 OA
ATOM     37  H   UNL     1      82.016  -0.191  22.503  0.00  0.00    +0.000 HD
ENDBRANCH  29  36
BRANCH  30  38
ATOM     38  C   UNL     1      87.933   0.003  20.735  0.00  0.00    +0.000 C 
BRANCH  38  39
ATOM     39  O   UNL     1      88.746  -1.149  20.612  0.00  0.00    +0.000 OA
ATOM     40  H   UNL     1      88.158  -1.913  20.480  0.00  0.00    +0.000 HD
ENDBRANCH  38  39
ENDBRANCH  30  38
ENDBRANCH  25  31
ENDBRANCH   2  25
TORSDOF 12
