REMARK VINA RESULT:      -5.5      1.952      6.167
REMARK  Name = 441667
REMARK  12 active torsions:
REMARK  status: ('A' for Active; 'I' for Inactive)
REMARK    1  A    between atoms: O_2  and  C_16
REMARK    2  A    between atoms: O_2  and  C_18
REMARK    3  A    between atoms: O_3  and  C_12
REMARK    4  A    between atoms: O_4  and  C_13
REMARK    5  A    between atoms: O_5  and  C_14
REMARK    6  A    between atoms: O_6  and  C_17
REMARK    7  A    between atoms: O_8  and  C_24
REMARK    8  A    between atoms: O_9  and  C_29
REMARK    9  A    between atoms: O_10  and  C_30
REMARK   10  A    between atoms: O_11  and  C_32
REMARK   11  A    between atoms: C_15  and  C_17
REMARK   12  A    between atoms: C_19  and  C_23
REMARK                            x       y       z     vdW  Elec       q    Type
REMARK                         _______ _______ _______ _____ _____    ______ ____
ROOT
ATOM      1  O   UNL     1      83.397   4.532  28.784  0.00  0.00    +0.000 OA
ATOM      2  C   UNL     1      83.806   2.456  27.498  0.00  0.00    +0.000 A 
ATOM      3  C   UNL     1      83.550   3.924  27.642  0.00  0.00    +0.000 A 
ATOM      4  C   UNL     1      83.828   1.737  28.627  0.00  0.00    +0.000 A 
ATOM      5  C   UNL     1      83.623   2.377  29.922  0.00  0.00    +0.000 A 
ATOM      6  C   UNL     1      83.425   3.761  29.961  0.00  0.00    +0.000 A 
ATOM      7  C   UNL     1      83.635   1.646  31.113  0.00  0.00    +0.000 A 
ATOM      8  C   UNL     1      83.241   4.411  31.182  0.00  0.00    +0.000 A 
ATOM      9  C   UNL     1      83.450   2.298  32.334  0.00  0.00    +0.000 A 
ATOM     10  C   UNL     1      83.254   3.678  32.368  0.00  0.00    +0.000 A 
ENDROOT
BRANCH   3  11
ATOM     11  C   UNL     1      83.496   4.733  26.401  0.00  0.00    +0.000 A 
ATOM     12  C   UNL     1      82.365   4.681  25.594  0.00  0.00    +0.000 A 
ATOM     13  C   UNL     1      84.577   5.537  26.057  0.00  0.00    +0.000 A 
ATOM     14  C   UNL     1      82.315   5.444  24.427  0.00  0.00    +0.000 A 
ATOM     15  C   UNL     1      84.526   6.299  24.890  0.00  0.00    +0.000 A 
ATOM     16  C   UNL     1      83.396   6.252  24.075  0.00  0.00    +0.000 A 
BRANCH  14  17
ATOM     17  O   UNL     1      81.205   5.389  23.640  0.00  0.00    +0.000 OA
ATOM     18  H   UNL     1      81.477   5.537  22.717  0.00  0.00    +0.000 HD
ENDBRANCH  14  17
BRANCH  16  19
ATOM     19  O   UNL     1      83.359   7.000  22.937  0.00  0.00    +0.000 OA
ATOM     20  H   UNL     1      82.523   7.496  22.910  0.00  0.00    +0.000 HD
ENDBRANCH  16  19
ENDBRANCH   3  11
BRANCH   7  21
ATOM     21  O   UNL     1      83.828   0.296  31.122  0.00  0.00    +0.000 OA
ATOM     22  H   UNL     1      84.074  -0.005  32.011  0.00  0.00    +0.000 HD
ENDBRANCH   7  21
BRANCH  10  23
ATOM     23  O   UNL     1      83.075   4.310  33.560  0.00  0.00    +0.000 OA
ATOM     24  H   UNL     1      83.824   4.912  33.714  0.00  0.00    +0.000 HD
ENDBRANCH  10  23
BRANCH   2  25
ATOM     25  O   UNL     1      84.055   1.911  26.259  0.00  0.00    +0.000 OA
BRANCH  25  31
ATOM     26  O   UNL     1      85.113  -0.147  26.559  0.00  0.00    +0.000 OA
ATOM     27  C   UNL     1      83.298  -1.441  24.747  0.00  0.00    +0.000 C 
ATOM     28  C   UNL     1      84.590  -2.104  25.226  0.00  0.00    +0.000 C 
ATOM     29  C   UNL     1      83.375   0.081  24.879  0.00  0.00    +0.000 C 
ATOM     30  C   UNL     1      84.995  -1.570  26.602  0.00  0.00    +0.000 C 
ATOM     31  C   UNL     1      83.875   0.495  26.262  0.00  0.00    +0.000 C 
BRANCH  27  32
ATOM     32  O   UNL     1      83.104  -1.791  23.375  0.00  0.00    +0.000 OA
ATOM     33  H   UNL     1      82.383  -1.241  23.022  0.00  0.00    +0.000 HD
ENDBRANCH  27  32
BRANCH  28  34
ATOM     34  O   UNL     1      84.396  -3.513  25.305  0.00  0.00    +0.000 OA
ATOM     35  H   UNL     1      85.189  -3.943  24.946  0.00  0.00    +0.000 HD
ENDBRANCH  28  34
BRANCH  29  36
ATOM     36  O   UNL     1      82.074   0.639  24.688  0.00  0.00    +0.000 OA
ATOM     37  H   UNL     1      81.940   1.307  25.382  0.00  0.00    +0.000 HD
ENDBRANCH  29  36
BRANCH  30  38
ATOM     38  C   UNL     1      86.342  -2.130  27.050  0.00  0.00    +0.000 C 
BRANCH  38  39
ATOM     39  O   UNL     1      87.174  -1.050  27.433  0.00  0.00    +0.000 OA
ATOM     40  H   UNL     1      86.603  -0.356  27.806  0.00  0.00    +0.000 HD
ENDBRANCH  38  39
ENDBRANCH  30  38
ENDBRANCH  25  31
ENDBRANCH   2  25
TORSDOF 12
