REMARK VINA RESULT:      -4.8      3.523      6.087
REMARK  Name = 441667
REMARK  12 active torsions:
REMARK  status: ('A' for Active; 'I' for Inactive)
REMARK    1  A    between atoms: O_2  and  C_16
REMARK    2  A    between atoms: O_2  and  C_18
REMARK    3  A    between atoms: O_3  and  C_12
REMARK    4  A    between atoms: O_4  and  C_13
REMARK    5  A    between atoms: O_5  and  C_14
REMARK    6  A    between atoms: O_6  and  C_17
REMARK    7  A    between atoms: O_8  and  C_24
REMARK    8  A    between atoms: O_9  and  C_29
REMARK    9  A    between atoms: O_10  and  C_30
REMARK   10  A    between atoms: O_11  and  C_32
REMARK   11  A    between atoms: C_15  and  C_17
REMARK   12  A    between atoms: C_19  and  C_23
REMARK                            x       y       z     vdW  Elec       q    Type
REMARK                         _______ _______ _______ _____ _____    ______ ____
ROOT
ATOM      1  O   UNL     1      84.554   1.798  26.616  0.00  0.00    +0.000 OA
ATOM      2  C   UNL     1      83.700   0.261  24.872  0.00  0.00    +0.000 A 
ATOM      3  C   UNL     1      84.348   0.586  26.182  0.00  0.00    +0.000 A 
ATOM      4  C   UNL     1      83.363   1.298  24.095  0.00  0.00    +0.000 A 
ATOM      5  C   UNL     1      83.613   2.668  24.531  0.00  0.00    +0.000 A 
ATOM      6  C   UNL     1      84.191   2.875  25.787  0.00  0.00    +0.000 A 
ATOM      7  C   UNL     1      83.276   3.766  23.734  0.00  0.00    +0.000 A 
ATOM      8  C   UNL     1      84.431   4.172  26.245  0.00  0.00    +0.000 A 
ATOM      9  C   UNL     1      83.517   5.062  24.194  0.00  0.00    +0.000 A 
ATOM     10  C   UNL     1      84.093   5.265  25.447  0.00  0.00    +0.000 A 
ENDROOT
BRANCH   3  11
ATOM     11  C   UNL     1      84.752  -0.549  27.045  0.00  0.00    +0.000 A 
ATOM     12  C   UNL     1      86.064  -1.007  27.009  0.00  0.00    +0.000 A 
ATOM     13  C   UNL     1      83.814  -1.143  27.883  0.00  0.00    +0.000 A 
ATOM     14  C   UNL     1      86.443  -2.076  27.823  0.00  0.00    +0.000 A 
ATOM     15  C   UNL     1      84.195  -2.211  28.696  0.00  0.00    +0.000 A 
ATOM     16  C   UNL     1      85.509  -2.677  28.666  0.00  0.00    +0.000 A 
BRANCH  14  17
ATOM     17  O   UNL     1      87.729  -2.522  27.784  0.00  0.00    +0.000 OA
ATOM     18  H   UNL     1      87.949  -2.741  26.861  0.00  0.00    +0.000 HD
ENDBRANCH  14  17
BRANCH  16  19
ATOM     19  O   UNL     1      85.867  -3.722  29.463  0.00  0.00    +0.000 OA
ATOM     20  H   UNL     1      85.790  -4.548  28.957  0.00  0.00    +0.000 HD
ENDBRANCH  16  19
ENDBRANCH   3  11
BRANCH   7  21
ATOM     21  O   UNL     1      82.707   3.609  22.505  0.00  0.00    +0.000 OA
ATOM     22  H   UNL     1      81.879   3.109  22.576  0.00  0.00    +0.000 HD
ENDBRANCH   7  21
BRANCH  10  23
ATOM     23  O   UNL     1      84.327   6.529  25.892  0.00  0.00    +0.000 OA
ATOM     24  H   UNL     1      83.753   6.705  26.658  0.00  0.00    +0.000 HD
ENDBRANCH  10  23
BRANCH   2  25
ATOM     25  O   UNL     1      83.430  -1.046  24.535  0.00  0.00    +0.000 OA
BRANCH  25  31
ATOM     26  O   UNL     1      84.350  -1.086  22.391  0.00  0.00    +0.000 OA
ATOM     27  C   UNL     1      85.265  -3.786  22.742  0.00  0.00    +0.000 C 
ATOM     28  C   UNL     1      85.234  -3.102  21.375  0.00  0.00    +0.000 C 
ATOM     29  C   UNL     1      84.293  -3.120  23.716  0.00  0.00    +0.000 C 
ATOM     30  C   UNL     1      85.370  -1.585  21.524  0.00  0.00    +0.000 C 
ATOM     31  C   UNL     1      84.459  -1.601  23.716  0.00  0.00    +0.000 C 
BRANCH  27  32
ATOM     32  O   UNL     1      84.894  -5.154  22.560  0.00  0.00    +0.000 OA
ATOM     33  H   UNL     1      85.208  -5.439  21.684  0.00  0.00    +0.000 HD
ENDBRANCH  27  32
BRANCH  28  34
ATOM     34  O   UNL     1      86.306  -3.596  20.576  0.00  0.00    +0.000 OA
ATOM     35  H   UNL     1      86.077  -4.497  20.295  0.00  0.00    +0.000 HD
ENDBRANCH  28  34
BRANCH  29  36
ATOM     36  O   UNL     1      84.546  -3.597  25.038  0.00  0.00    +0.000 OA
ATOM     37  H   UNL     1      84.645  -4.563  24.985  0.00  0.00    +0.000 HD
ENDBRANCH  29  36
BRANCH  30  38
ATOM     38  C   UNL     1      85.225  -0.871  20.183  0.00  0.00    +0.000 C 
BRANCH  38  39
ATOM     39  O   UNL     1      84.466   0.309  20.381  0.00  0.00    +0.000 OA
ATOM     40  H   UNL     1      83.567   0.140  20.049  0.00  0.00    +0.000 HD
ENDBRANCH  38  39
ENDBRANCH  30  38
ENDBRANCH  25  31
ENDBRANCH   2  25
TORSDOF 12
