REMARK VINA RESULT:      -4.7      3.125      6.879
REMARK  Name = 441667
REMARK  12 active torsions:
REMARK  status: ('A' for Active; 'I' for Inactive)
REMARK    1  A    between atoms: O_2  and  C_16
REMARK    2  A    between atoms: O_2  and  C_18
REMARK    3  A    between atoms: O_3  and  C_12
REMARK    4  A    between atoms: O_4  and  C_13
REMARK    5  A    between atoms: O_5  and  C_14
REMARK    6  A    between atoms: O_6  and  C_17
REMARK    7  A    between atoms: O_8  and  C_24
REMARK    8  A    between atoms: O_9  and  C_29
REMARK    9  A    between atoms: O_10  and  C_30
REMARK   10  A    between atoms: O_11  and  C_32
REMARK   11  A    between atoms: C_15  and  C_17
REMARK   12  A    between atoms: C_19  and  C_23
REMARK                            x       y       z     vdW  Elec       q    Type
REMARK                         _______ _______ _______ _____ _____    ______ ____
ROOT
ATOM      1  O   UNL     1      84.384  -1.189  25.079  0.00  0.00    +0.000 OA
ATOM      2  C   UNL     1      84.908   1.229  24.984  0.00  0.00    +0.000 A 
ATOM      3  C   UNL     1      84.347  -0.004  25.621  0.00  0.00    +0.000 A 
ATOM      4  C   UNL     1      85.433   1.088  23.760  0.00  0.00    +0.000 A 
ATOM      5  C   UNL     1      85.457  -0.216  23.107  0.00  0.00    +0.000 A 
ATOM      6  C   UNL     1      84.941  -1.319  23.793  0.00  0.00    +0.000 A 
ATOM      7  C   UNL     1      85.994  -0.386  21.827  0.00  0.00    +0.000 A 
ATOM      8  C   UNL     1      84.961  -2.585  23.206  0.00  0.00    +0.000 A 
ATOM      9  C   UNL     1      86.012  -1.653  21.241  0.00  0.00    +0.000 A 
ATOM     10  C   UNL     1      85.497  -2.751  21.930  0.00  0.00    +0.000 A 
ENDROOT
BRANCH   3  11
ATOM     11  C   UNL     1      83.738   0.136  26.965  0.00  0.00    +0.000 A 
ATOM     12  C   UNL     1      84.542   0.057  28.096  0.00  0.00    +0.000 A 
ATOM     13  C   UNL     1      82.368   0.346  27.080  0.00  0.00    +0.000 A 
ATOM     14  C   UNL     1      83.968   0.190  29.361  0.00  0.00    +0.000 A 
ATOM     15  C   UNL     1      81.795   0.479  28.345  0.00  0.00    +0.000 A 
ATOM     16  C   UNL     1      82.595   0.401  29.485  0.00  0.00    +0.000 A 
BRANCH  14  17
ATOM     17  O   UNL     1      84.760   0.112  30.466  0.00  0.00    +0.000 OA
ATOM     18  H   UNL     1      85.205  -0.754  30.462  0.00  0.00    +0.000 HD
ENDBRANCH  14  17
BRANCH  16  19
ATOM     19  O   UNL     1      82.023   0.531  30.714  0.00  0.00    +0.000 OA
ATOM     20  H   UNL     1      81.967   1.475  30.940  0.00  0.00    +0.000 HD
ENDBRANCH  16  19
ENDBRANCH   3  11
BRANCH   7  21
ATOM     21  O   UNL     1      86.511   0.661  21.123  0.00  0.00    +0.000 OA
ATOM     22  H   UNL     1      86.383   0.525  20.171  0.00  0.00    +0.000 HD
ENDBRANCH   7  21
BRANCH  10  23
ATOM     23  O   UNL     1      85.517  -3.985  21.356  0.00  0.00    +0.000 OA
ATOM     24  H   UNL     1      85.978  -3.928  20.501  0.00  0.00    +0.000 HD
ENDBRANCH  10  23
BRANCH   2  25
ATOM     25  O   UNL     1      84.917   2.423  25.669  0.00  0.00    +0.000 OA
BRANCH  25  31
ATOM     26  O   UNL     1      83.335   2.969  24.044  0.00  0.00    +0.000 OA
ATOM     27  C   UNL     1      82.958   5.586  25.168  0.00  0.00    +0.000 C 
ATOM     28  C   UNL     1      82.430   5.204  23.784  0.00  0.00    +0.000 C 
ATOM     29  C   UNL     1      84.107   4.671  25.593  0.00  0.00    +0.000 C 
ATOM     30  C   UNL     1      82.155   3.700  23.704  0.00  0.00    +0.000 C 
ATOM     31  C   UNL     1      83.753   3.199  25.387  0.00  0.00    +0.000 C 
BRANCH  27  32
ATOM     32  O   UNL     1      83.421   6.936  25.107  0.00  0.00    +0.000 OA
ATOM     33  H   UNL     1      84.321   6.930  24.738  0.00  0.00    +0.000 HD
ENDBRANCH  27  32
BRANCH  28  34
ATOM     34  O   UNL     1      81.225   5.918  23.525  0.00  0.00    +0.000 OA
ATOM     35  H   UNL     1      81.425   6.867  23.573  0.00  0.00    +0.000 HD
ENDBRANCH  28  34
BRANCH  29  36
ATOM     36  O   UNL     1      84.385   4.874  26.979  0.00  0.00    +0.000 OA
ATOM     37  H   UNL     1      83.708   5.481  27.326  0.00  0.00    +0.000 HD
ENDBRANCH  29  36
BRANCH  30  38
ATOM     38  C   UNL     1      81.739   3.276  22.299  0.00  0.00    +0.000 C 
BRANCH  38  39
ATOM     39  O   UNL     1      82.518   2.158  21.917  0.00  0.00    +0.000 OA
ATOM     40  H   UNL     1      83.435   2.327  22.196  0.00  0.00    +0.000 HD
ENDBRANCH  38  39
ENDBRANCH  30  38
ENDBRANCH  25  31
ENDBRANCH   2  25
TORSDOF 12
