REMARK VINA RESULT:      -5.1      1.892      2.550
REMARK  Name = 441667
REMARK  12 active torsions:
REMARK  status: ('A' for Active; 'I' for Inactive)
REMARK    1  A    between atoms: O_2  and  C_16
REMARK    2  A    between atoms: O_2  and  C_18
REMARK    3  A    between atoms: O_3  and  C_12
REMARK    4  A    between atoms: O_4  and  C_13
REMARK    5  A    between atoms: O_5  and  C_14
REMARK    6  A    between atoms: O_6  and  C_17
REMARK    7  A    between atoms: O_8  and  C_24
REMARK    8  A    between atoms: O_9  and  C_29
REMARK    9  A    between atoms: O_10  and  C_30
REMARK   10  A    between atoms: O_11  and  C_32
REMARK   11  A    between atoms: C_15  and  C_17
REMARK   12  A    between atoms: C_19  and  C_23
REMARK                            x       y       z     vdW  Elec       q    Type
REMARK                         _______ _______ _______ _____ _____    ______ ____
ROOT
ATOM      1  O   UNL     1      83.458   4.333  27.897  0.00  0.00    +0.000 OA
ATOM      2  C   UNL     1      83.926   1.903  27.791  0.00  0.00    +0.000 A 
ATOM      3  C   UNL     1      83.623   3.187  28.497  0.00  0.00    +0.000 A 
ATOM      4  C   UNL     1      84.078   1.971  26.462  0.00  0.00    +0.000 A 
ATOM      5  C   UNL     1      83.939   3.242  25.760  0.00  0.00    +0.000 A 
ATOM      6  C   UNL     1      83.620   4.384  26.501  0.00  0.00    +0.000 A 
ATOM      7  C   UNL     1      84.100   3.338  24.375  0.00  0.00    +0.000 A 
ATOM      8  C   UNL     1      83.463   5.615  25.862  0.00  0.00    +0.000 A 
ATOM      9  C   UNL     1      83.943   4.570  23.737  0.00  0.00    +0.000 A 
ATOM     10  C   UNL     1      83.625   5.707  24.480  0.00  0.00    +0.000 A 
ENDROOT
BRANCH   3  11
ATOM     11  C   UNL     1      83.476   3.138  29.971  0.00  0.00    +0.000 A 
ATOM     12  C   UNL     1      84.606   3.021  30.772  0.00  0.00    +0.000 A 
ATOM     13  C   UNL     1      82.208   3.209  30.538  0.00  0.00    +0.000 A 
ATOM     14  C   UNL     1      84.466   2.975  32.160  0.00  0.00    +0.000 A 
ATOM     15  C   UNL     1      82.070   3.163  31.926  0.00  0.00    +0.000 A 
ATOM     16  C   UNL     1      83.198   3.046  32.736  0.00  0.00    +0.000 A 
BRANCH  14  17
ATOM     17  O   UNL     1      85.577   2.861  32.940  0.00  0.00    +0.000 OA
ATOM     18  H   UNL     1      86.020   3.728  32.969  0.00  0.00    +0.000 HD
ENDBRANCH  14  17
BRANCH  16  19
ATOM     19  O   UNL     1      83.049   3.001  34.089  0.00  0.00    +0.000 OA
ATOM     20  H   UNL     1      82.531   3.772  34.377  0.00  0.00    +0.000 HD
ENDBRANCH  16  19
ENDBRANCH   3  11
BRANCH   7  21
ATOM     21  O   UNL     1      84.407   2.249  23.613  0.00  0.00    +0.000 OA
ATOM     22  H   UNL     1      83.659   1.632  23.586  0.00  0.00    +0.000 HD
ENDBRANCH   7  21
BRANCH  10  23
ATOM     23  O   UNL     1      83.472   6.907  23.856  0.00  0.00    +0.000 OA
ATOM     24  H   UNL     1      82.653   7.325  24.172  0.00  0.00    +0.000 HD
ENDBRANCH  10  23
BRANCH   2  25
ATOM     25  O   UNL     1      83.986   0.720  28.491  0.00  0.00    +0.000 OA
BRANCH  25  31
ATOM     26  O   UNL     1      82.864  -1.211  27.815  0.00  0.00    +0.000 OA
ATOM     27  C   UNL     1      85.333  -2.514  27.142  0.00  0.00    +0.000 C 
ATOM     28  C   UNL     1      84.010  -3.271  27.251  0.00  0.00    +0.000 C 
ATOM     29  C   UNL     1      85.288  -1.205  27.932  0.00  0.00    +0.000 C 
ATOM     30  C   UNL     1      82.828  -2.347  26.949  0.00  0.00    +0.000 C 
ATOM     31  C   UNL     1      84.024  -0.407  27.616  0.00  0.00    +0.000 C 
BRANCH  27  32
ATOM     32  O   UNL     1      86.366  -3.351  27.665  0.00  0.00    +0.000 OA
ATOM     33  H   UNL     1      86.257  -4.240  27.284  0.00  0.00    +0.000 HD
ENDBRANCH  27  32
BRANCH  28  34
ATOM     34  O   UNL     1      84.009  -4.355  26.326  0.00  0.00    +0.000 OA
ATOM     35  H   UNL     1      84.692  -4.178  25.659  0.00  0.00    +0.000 HD
ENDBRANCH  28  34
BRANCH  29  36
ATOM     36  O   UNL     1      86.420  -0.405  27.587  0.00  0.00    +0.000 OA
ATOM     37  H   UNL     1      87.175  -0.730  28.107  0.00  0.00    +0.000 HD
ENDBRANCH  29  36
BRANCH  30  38
ATOM     38  C   UNL     1      81.491  -3.049  27.165  0.00  0.00    +0.000 C 
BRANCH  38  39
ATOM     39  O   UNL     1      81.205  -3.834  26.022  0.00  0.00    +0.000 OA
ATOM     40  H   UNL     1      81.708  -4.664  26.100  0.00  0.00    +0.000 HD
ENDBRANCH  38  39
ENDBRANCH  30  38
ENDBRANCH  25  31
ENDBRANCH   2  25
TORSDOF 12
