REMARK VINA RESULT:      -5.9      0.000      0.000
REMARK  Name = 441667
REMARK  12 active torsions:
REMARK  status: ('A' for Active; 'I' for Inactive)
REMARK    1  A    between atoms: O_2  and  C_16
REMARK    2  A    between atoms: O_2  and  C_18
REMARK    3  A    between atoms: O_3  and  C_12
REMARK    4  A    between atoms: O_4  and  C_13
REMARK    5  A    between atoms: O_5  and  C_14
REMARK    6  A    between atoms: O_6  and  C_17
REMARK    7  A    between atoms: O_8  and  C_24
REMARK    8  A    between atoms: O_9  and  C_29
REMARK    9  A    between atoms: O_10  and  C_30
REMARK   10  A    between atoms: O_11  and  C_32
REMARK   11  A    between atoms: C_15  and  C_17
REMARK   12  A    between atoms: C_19  and  C_23
REMARK                            x       y       z     vdW  Elec       q    Type
REMARK                         _______ _______ _______ _____ _____    ______ ____
ROOT
ATOM      1  O   UNL     1      83.704   4.706  27.871  0.00  0.00    +0.000 OA
ATOM      2  C   UNL     1      83.035   2.323  27.953  0.00  0.00    +0.000 A 
ATOM      3  C   UNL     1      83.405   3.640  28.559  0.00  0.00    +0.000 A 
ATOM      4  C   UNL     1      83.067   2.247  26.616  0.00  0.00    +0.000 A 
ATOM      5  C   UNL     1      83.436   3.408  25.813  0.00  0.00    +0.000 A 
ATOM      6  C   UNL     1      83.732   4.608  26.467  0.00  0.00    +0.000 A 
ATOM      7  C   UNL     1      83.483   3.351  24.417  0.00  0.00    +0.000 A 
ATOM      8  C   UNL     1      84.073   5.744  25.732  0.00  0.00    +0.000 A 
ATOM      9  C   UNL     1      83.825   4.488  23.683  0.00  0.00    +0.000 A 
ATOM     10  C   UNL     1      84.119   5.683  24.339  0.00  0.00    +0.000 A 
ENDROOT
BRANCH   3  11
ATOM     11  C   UNL     1      83.400   3.737  30.038  0.00  0.00    +0.000 A 
ATOM     12  C   UNL     1      84.513   3.321  30.759  0.00  0.00    +0.000 A 
ATOM     13  C   UNL     1      82.281   4.245  30.690  0.00  0.00    +0.000 A 
ATOM     14  C   UNL     1      84.507   3.413  32.151  0.00  0.00    +0.000 A 
ATOM     15  C   UNL     1      82.276   4.336  32.082  0.00  0.00    +0.000 A 
ATOM     16  C   UNL     1      83.389   3.921  32.812  0.00  0.00    +0.000 A 
BRANCH  14  17
ATOM     17  O   UNL     1      85.600   3.004  32.853  0.00  0.00    +0.000 OA
ATOM     18  H   UNL     1      85.342   2.245  33.406  0.00  0.00    +0.000 HD
ENDBRANCH  14  17
BRANCH  16  19
ATOM     19  O   UNL     1      83.371   4.014  34.171  0.00  0.00    +0.000 OA
ATOM     20  H   UNL     1      82.616   3.507  34.514  0.00  0.00    +0.000 HD
ENDBRANCH  16  19
ENDBRANCH   3  11
BRANCH   7  21
ATOM     21  O   UNL     1      83.198   2.203  23.738  0.00  0.00    +0.000 OA
ATOM     22  H   UNL     1      82.275   1.943  23.883  0.00  0.00    +0.000 HD
ENDBRANCH   7  21
BRANCH  10  23
ATOM     23  O   UNL     1      84.452   6.790  23.621  0.00  0.00    +0.000 OA
ATOM     24  H   UNL     1      85.412   6.787  23.463  0.00  0.00    +0.000 HD
ENDBRANCH  10  23
BRANCH   2  25
ATOM     25  O   UNL     1      82.635   1.276  28.752  0.00  0.00    +0.000 OA
BRANCH  25  31
ATOM     26  O   UNL     1      84.336  -0.202  28.150  0.00  0.00    +0.000 OA
ATOM     27  C   UNL     1      84.348  -1.387  30.767  0.00  0.00    +0.000 C 
ATOM     28  C   UNL     1      85.061  -2.025  29.575  0.00  0.00    +0.000 C 
ATOM     29  C   UNL     1      83.244  -0.435  30.306  0.00  0.00    +0.000 C 
ATOM     30  C   UNL     1      85.477  -0.961  28.557  0.00  0.00    +0.000 C 
ATOM     31  C   UNL     1      83.750   0.523  29.229  0.00  0.00    +0.000 C 
BRANCH  27  32
ATOM     32  O   UNL     1      83.777  -2.434  31.553  0.00  0.00    +0.000 OA
ATOM     33  H   UNL     1      84.025  -3.284  31.150  0.00  0.00    +0.000 HD
ENDBRANCH  27  32
BRANCH  28  34
ATOM     34  O   UNL     1      86.220  -2.717  30.033  0.00  0.00    +0.000 OA
ATOM     35  H   UNL     1      86.516  -3.307  29.320  0.00  0.00    +0.000 HD
ENDBRANCH  28  34
BRANCH  29  36
ATOM     36  O   UNL     1      82.794   0.341  31.418  0.00  0.00    +0.000 OA
ATOM     37  H   UNL     1      83.289   1.178  31.409  0.00  0.00    +0.000 HD
ENDBRANCH  29  36
BRANCH  30  38
ATOM     38  C   UNL     1      86.086  -1.584  27.305  0.00  0.00    +0.000 C 
BRANCH  38  39
ATOM     39  O   UNL     1      87.491  -1.643  27.469  0.00  0.00    +0.000 OA
ATOM     40  H   UNL     1      87.776  -2.547  27.249  0.00  0.00    +0.000 HD
ENDBRANCH  38  39
ENDBRANCH  30  38
ENDBRANCH  25  31
ENDBRANCH   2  25
TORSDOF 12
