REMARK VINA RESULT:      -5.4     12.874     14.692
REMARK  Name = 5280443
REMARK  4 active torsions:
REMARK  status: ('A' for Active; 'I' for Inactive)
REMARK    1  A    between atoms: O_2  and  C_12
REMARK    2  A    between atoms: O_4  and  C_14
REMARK    3  A    between atoms: O_5  and  C_20
REMARK    4  A    between atoms: C_8  and  C_9
REMARK                            x       y       z     vdW  Elec       q    Type
REMARK                         _______ _______ _______ _____ _____    ______ ____
ROOT
ATOM      1  O   UNL     1      86.907   0.856  24.396  0.00  0.00    +0.000 OA
ATOM      2  O   UNL     1      84.724   0.775  20.957  0.00  0.00    +0.000 OA
ATOM      3  C   UNL     1      85.168   1.844  23.017  0.00  0.00    +0.000 A 
ATOM      4  C   UNL     1      85.950   1.813  24.170  0.00  0.00    +0.000 A 
ATOM      5  C   UNL     1      87.096  -0.128  23.437  0.00  0.00    +0.000 A 
ATOM      6  C   UNL     1      85.373   0.808  21.993  0.00  0.00    +0.000 A 
ATOM      7  C   UNL     1      86.412  -0.201  22.284  0.00  0.00    +0.000 A 
ATOM      8  C   UNL     1      84.209   2.843  22.841  0.00  0.00    +0.000 A 
ATOM      9  C   UNL     1      85.778   2.785  25.156  0.00  0.00    +0.000 A 
ATOM     10  C   UNL     1      84.821   3.785  24.984  0.00  0.00    +0.000 A 
ATOM     11  C   UNL     1      84.037   3.814  23.828  0.00  0.00    +0.000 A 
ENDROOT
BRANCH   5  12
ATOM     12  C   UNL     1      88.152  -1.102  23.777  0.00  0.00    +0.000 A 
ATOM     13  C   UNL     1      88.583  -1.235  25.100  0.00  0.00    +0.000 A 
ATOM     14  C   UNL     1      88.723  -1.895  22.780  0.00  0.00    +0.000 A 
ATOM     15  C   UNL     1      89.580  -2.157  25.422  0.00  0.00    +0.000 A 
ATOM     16  C   UNL     1      89.720  -2.816  23.102  0.00  0.00    +0.000 A 
ATOM     17  C   UNL     1      90.149  -2.946  24.423  0.00  0.00    +0.000 A 
BRANCH  17  18
ATOM     18  O   UNL     1      91.121  -3.845  24.737  0.00  0.00    +0.000 OA
ATOM     19  H   UNL     1      90.775  -4.462  25.406  0.00  0.00    +0.000 HD
ENDBRANCH  17  18
ENDBRANCH   5  12
BRANCH   8  20
ATOM     20  O   UNL     1      83.421   2.917  21.732  0.00  0.00    +0.000 OA
ATOM     21  H   UNL     1      82.586   3.366  21.938  0.00  0.00    +0.000 HD
ENDBRANCH   8  20
BRANCH  10  22
ATOM     22  O   UNL     1      84.650   4.735  25.944  0.00  0.00    +0.000 OA
ATOM     23  H   UNL     1      85.353   5.403  25.857  0.00  0.00    +0.000 HD
ENDBRANCH  10  22
TORSDOF 4
