REMARK VINA RESULT:      -5.3     15.242     17.504
REMARK  Name = 5280443
REMARK  4 active torsions:
REMARK  status: ('A' for Active; 'I' for Inactive)
REMARK    1  A    between atoms: O_2  and  C_12
REMARK    2  A    between atoms: O_4  and  C_14
REMARK    3  A    between atoms: O_5  and  C_20
REMARK    4  A    between atoms: C_8  and  C_9
REMARK                            x       y       z     vdW  Elec       q    Type
REMARK                         _______ _______ _______ _____ _____    ______ ____
ROOT
ATOM      1  O   UNL     1      85.517   2.296  20.701  0.00  0.00    +0.000 OA
ATOM      2  O   UNL     1      81.929   3.857  21.833  0.00  0.00    +0.000 OA
ATOM      3  C   UNL     1      83.346   3.180  20.067  0.00  0.00    +0.000 A 
ATOM      4  C   UNL     1      84.590   2.641  19.750  0.00  0.00    +0.000 A 
ATOM      5  C   UNL     1      85.202   2.503  22.035  0.00  0.00    +0.000 A 
ATOM      6  C   UNL     1      83.003   3.391  21.482  0.00  0.00    +0.000 A 
ATOM      7  C   UNL     1      84.035   3.007  22.467  0.00  0.00    +0.000 A 
ATOM      8  C   UNL     1      82.441   3.511  19.056  0.00  0.00    +0.000 A 
ATOM      9  C   UNL     1      84.939   2.428  18.416  0.00  0.00    +0.000 A 
ATOM     10  C   UNL     1      84.038   2.758  17.402  0.00  0.00    +0.000 A 
ATOM     11  C   UNL     1      82.791   3.299  17.722  0.00  0.00    +0.000 A 
ENDROOT
BRANCH   5  12
ATOM     12  C   UNL     1      86.266   2.093  22.973  0.00  0.00    +0.000 A 
ATOM     13  C   UNL     1      86.084   2.245  24.351  0.00  0.00    +0.000 A 
ATOM     14  C   UNL     1      87.458   1.551  22.489  0.00  0.00    +0.000 A 
ATOM     15  C   UNL     1      87.089   1.857  25.237  0.00  0.00    +0.000 A 
ATOM     16  C   UNL     1      88.463   1.164  23.375  0.00  0.00    +0.000 A 
ATOM     17  C   UNL     1      88.279   1.317  24.749  0.00  0.00    +0.000 A 
BRANCH  17  18
ATOM     18  O   UNL     1      89.258   0.938  25.614  0.00  0.00    +0.000 OA
ATOM     19  H   UNL     1      89.470   0.001  25.458  0.00  0.00    +0.000 HD
ENDBRANCH  17  18
ENDBRANCH   5  12
BRANCH   8  20
ATOM     20  O   UNL     1      81.212   4.040  19.314  0.00  0.00    +0.000 OA
ATOM     21  H   UNL     1      80.909   3.778  20.198  0.00  0.00    +0.000 HD
ENDBRANCH   8  20
BRANCH  10  22
ATOM     22  O   UNL     1      84.375   2.552  16.099  0.00  0.00    +0.000 OA
ATOM     23  H   UNL     1      84.960   3.272  15.807  0.00  0.00    +0.000 HD
ENDBRANCH  10  22
TORSDOF 4
