REMARK VINA RESULT:      -5.5     12.483     13.816
REMARK  Name = 5280443
REMARK  4 active torsions:
REMARK  status: ('A' for Active; 'I' for Inactive)
REMARK    1  A    between atoms: O_2  and  C_12
REMARK    2  A    between atoms: O_4  and  C_14
REMARK    3  A    between atoms: O_5  and  C_20
REMARK    4  A    between atoms: C_8  and  C_9
REMARK                            x       y       z     vdW  Elec       q    Type
REMARK                         _______ _______ _______ _____ _____    ______ ____
ROOT
ATOM      1  O   UNL     1      88.484  -1.807  25.677  0.00  0.00    +0.000 OA
ATOM      2  O   UNL     1      90.952  -3.783  23.108  0.00  0.00    +0.000 OA
ATOM      3  C   UNL     1      89.889  -3.734  25.218  0.00  0.00    +0.000 A 
ATOM      4  C   UNL     1      89.037  -3.007  26.046  0.00  0.00    +0.000 A 
ATOM      5  C   UNL     1      88.796  -1.293  24.428  0.00  0.00    +0.000 A 
ATOM      6  C   UNL     1      90.214  -3.198  23.887  0.00  0.00    +0.000 A 
ATOM      7  C   UNL     1      89.596  -1.902  23.538  0.00  0.00    +0.000 A 
ATOM      8  C   UNL     1      90.421  -4.952  25.646  0.00  0.00    +0.000 A 
ATOM      9  C   UNL     1      88.711  -3.495  27.312  0.00  0.00    +0.000 A 
ATOM     10  C   UNL     1      89.241  -4.711  27.744  0.00  0.00    +0.000 A 
ATOM     11  C   UNL     1      90.096  -5.438  26.913  0.00  0.00    +0.000 A 
ENDROOT
BRANCH   5  12
ATOM     12  C   UNL     1      88.144  -0.002  24.131  0.00  0.00    +0.000 A 
ATOM     13  C   UNL     1      87.824   0.336  22.813  0.00  0.00    +0.000 A 
ATOM     14  C   UNL     1      87.843   0.887  25.165  0.00  0.00    +0.000 A 
ATOM     15  C   UNL     1      87.207   1.555  22.533  0.00  0.00    +0.000 A 
ATOM     16  C   UNL     1      87.227   2.106  24.884  0.00  0.00    +0.000 A 
ATOM     17  C   UNL     1      86.909   2.441  23.568  0.00  0.00    +0.000 A 
BRANCH  17  18
ATOM     18  O   UNL     1      86.307   3.630  23.295  0.00  0.00    +0.000 OA
ATOM     19  H   UNL     1      85.348   3.486  23.216  0.00  0.00    +0.000 HD
ENDBRANCH  17  18
ENDBRANCH   5  12
BRANCH   8  20
ATOM     20  O   UNL     1      91.258  -5.700  24.873  0.00  0.00    +0.000 OA
ATOM     21  H   UNL     1      90.753  -6.331  24.338  0.00  0.00    +0.000 HD
ENDBRANCH   8  20
BRANCH  10  22
ATOM     22  O   UNL     1      88.925  -5.190  28.979  0.00  0.00    +0.000 OA
ATOM     23  H   UNL     1      89.503  -5.946  29.182  0.00  0.00    +0.000 HD
ENDBRANCH  10  22
TORSDOF 4
