REMARK VINA RESULT:      -5.4     14.035     16.100
REMARK  Name = 5280443
REMARK  4 active torsions:
REMARK  status: ('A' for Active; 'I' for Inactive)
REMARK    1  A    between atoms: O_2  and  C_12
REMARK    2  A    between atoms: O_4  and  C_14
REMARK    3  A    between atoms: O_5  and  C_20
REMARK    4  A    between atoms: C_8  and  C_9
REMARK                            x       y       z     vdW  Elec       q    Type
REMARK                         _______ _______ _______ _____ _____    ______ ____
ROOT
ATOM      1  O   UNL     1      85.020   1.398  23.025  0.00  0.00    +0.000 OA
ATOM      2  O   UNL     1      84.265   4.832  25.083  0.00  0.00    +0.000 OA
ATOM      3  C   UNL     1      83.677   3.404  23.295  0.00  0.00    +0.000 A 
ATOM      4  C   UNL     1      83.989   2.216  22.637  0.00  0.00    +0.000 A 
ATOM      5  C   UNL     1      85.789   1.777  24.115  0.00  0.00    +0.000 A 
ATOM      6  C   UNL     1      84.484   3.805  24.458  0.00  0.00    +0.000 A 
ATOM      7  C   UNL     1      85.583   2.893  24.834  0.00  0.00    +0.000 A 
ATOM      8  C   UNL     1      82.614   4.196  22.855  0.00  0.00    +0.000 A 
ATOM      9  C   UNL     1      83.238   1.812  21.533  0.00  0.00    +0.000 A 
ATOM     10  C   UNL     1      82.176   2.600  21.090  0.00  0.00    +0.000 A 
ATOM     11  C   UNL     1      81.865   3.791  21.750  0.00  0.00    +0.000 A 
ENDROOT
BRANCH   5  12
ATOM     12  C   UNL     1      86.866   0.825  24.450  0.00  0.00    +0.000 A 
ATOM     13  C   UNL     1      86.790  -0.501  24.014  0.00  0.00    +0.000 A 
ATOM     14  C   UNL     1      87.965   1.244  25.202  0.00  0.00    +0.000 A 
ATOM     15  C   UNL     1      87.808  -1.401  24.329  0.00  0.00    +0.000 A 
ATOM     16  C   UNL     1      88.983   0.343  25.517  0.00  0.00    +0.000 A 
ATOM     17  C   UNL     1      88.904  -0.980  25.081  0.00  0.00    +0.000 A 
BRANCH  17  18
ATOM     18  O   UNL     1      89.897  -1.857  25.388  0.00  0.00    +0.000 OA
ATOM     19  H   UNL     1      89.818  -2.637  24.811  0.00  0.00    +0.000 HD
ENDBRANCH  17  18
ENDBRANCH   5  12
BRANCH   8  20
ATOM     20  O   UNL     1      82.270   5.365  23.464  0.00  0.00    +0.000 OA
ATOM     21  H   UNL     1      82.773   5.482  24.285  0.00  0.00    +0.000 HD
ENDBRANCH   8  20
BRANCH  10  22
ATOM     22  O   UNL     1      81.441   2.209  20.013  0.00  0.00    +0.000 OA
ATOM     23  H   UNL     1      81.965   1.583  19.484  0.00  0.00    +0.000 HD
ENDBRANCH  10  22
TORSDOF 4
