REMARK VINA RESULT:      -4.4      1.502      2.400
REMARK  Name = 155598690
REMARK  7 active torsions:
REMARK  status: ('A' for Active; 'I' for Inactive)
REMARK    1  A    between atoms: O_1  and  C_11
REMARK    2  A    between atoms: O_1  and  C_16
REMARK    3  A    between atoms: O_3  and  C_19
REMARK    4  A    between atoms: O_3  and  C_25
REMARK    5  A    between atoms: N_4  and  C_10
REMARK    6  A    between atoms: C_16  and  C_19
REMARK    7  A    between atoms: C_17  and  C_18
REMARK                            x       y       z     vdW  Elec       q    Type
REMARK                         _______ _______ _______ _____ _____    ______ ____
ROOT
ATOM      1  O   UNL     1      88.583  -1.085  24.383  0.00  0.00    +0.000 OA
ATOM      2  N   UNL     1      87.376  -1.242  22.410  0.00  0.00    +0.000 N 
ATOM      3  C   UNL     1      88.358  -1.631  23.307  0.00  0.00    +0.000 C 
ATOM      4  H   UNL     1      87.302  -1.724  21.518  0.00  0.00    +0.000 HD
ENDROOT
BRANCH   3  10
ATOM      5  N   UNL     1      89.341  -3.015  21.567  0.00  0.00    +0.000 NA
ATOM      6  N   UNL     1      89.883  -3.676  25.146  0.00  0.00    +0.000 N 
ATOM      7  N   UNL     1      90.762  -4.946  21.982  0.00  0.00    +0.000 NA
ATOM      8  N   UNL     1      90.231  -4.269  19.828  0.00  0.00    +0.000 N 
ATOM      9  N   UNL     1      90.869  -5.188  17.911  0.00  0.00    +0.000 NA
ATOM     10  C   UNL     1      89.195  -2.785  22.890  0.00  0.00    +0.000 A 
ATOM     11  C   UNL     1      89.831  -3.636  23.776  0.00  0.00    +0.000 A 
ATOM     12  C   UNL     1      90.600  -4.695  23.304  0.00  0.00    +0.000 A 
ATOM     13  C   UNL     1      90.105  -4.066  21.198  0.00  0.00    +0.000 A 
ATOM     14  C   UNL     1      91.120  -5.382  24.428  0.00  0.00    +0.000 A 
ATOM     15  C   UNL     1      90.661  -4.730  25.552  0.00  0.00    +0.000 A 
ATOM     16  C   UNL     1      89.662  -3.513  18.844  0.00  0.00    +0.000 A 
ATOM     17  C   UNL     1      90.946  -5.262  19.221  0.00  0.00    +0.000 A 
ATOM     18  C   UNL     1      90.070  -4.100  17.669  0.00  0.00    +0.000 A 
ATOM     19  H   UNL     1      89.417  -3.027  25.768  0.00  0.00    +0.000 HD
ENDBRANCH   3  10
BRANCH   2  20
ATOM     20  C   UNL     1      86.499  -0.123  22.660  0.00  0.00    +0.000 C 
ATOM     21  C   UNL     1      84.756   2.074  21.736  0.00  0.00    +0.000 C 
ATOM     22  C   UNL     1      87.088   1.162  22.072  0.00  0.00    +0.000 C 
ATOM     23  C   UNL     1      85.097  -0.401  22.109  0.00  0.00    +0.000 C 
ATOM     24  C   UNL     1      86.154   2.351  22.283  0.00  0.00    +0.000 C 
ATOM     25  C   UNL     1      84.170   0.792  22.322  0.00  0.00    +0.000 C 
BRANCH  21  26
ATOM     26  O   UNL     1      83.893   3.159  22.058  0.00  0.00    +0.000 OA
BRANCH  26  27
ATOM     27  C   UNL     1      82.821   3.265  21.133  0.00  0.00    +0.000 C 
BRANCH  27  28
ATOM     28  C   UNL     1      83.380   3.251  19.723  0.00  0.00    +0.000 C 
BRANCH  28  29
ATOM     29  O   UNL     1      82.426   2.656  18.852  0.00  0.00    +0.000 OA
ATOM     30  C   UNL     1      82.404   1.243  18.992  0.00  0.00    +0.000 C 
ENDBRANCH  28  29
ENDBRANCH  27  28
ENDBRANCH  26  27
ENDBRANCH  21  26
ENDBRANCH   2  20
TORSDOF 6
