REMARK VINA RESULT:      -5.1      3.535      8.107
REMARK  Name = 118736856
REMARK  9 active torsions:
REMARK  status: ('A' for Active; 'I' for Inactive)
REMARK    1  A    between atoms: O_2  and  C_11
REMARK    2  A    between atoms: O_2  and  C_15
REMARK    3  A    between atoms: O_3  and  C_19
REMARK    4  A    between atoms: O_3  and  C_27
REMARK    5  A    between atoms: N_5  and  C_8
REMARK    6  A    between atoms: N_5  and  C_14
REMARK    7  A    between atoms: N_6  and  C_25
REMARK    8  A    between atoms: C_15  and  C_19
REMARK    9  A    between atoms: C_23  and  C_26
REMARK                            x       y       z     vdW  Elec       q    Type
REMARK                         _______ _______ _______ _____ _____    ______ ____
ROOT
ATOM      1  O   UNL     1      89.027  -2.526  26.848  0.00  0.00    +0.000 OA
ATOM      2  N   UNL     1      89.817  -3.706  25.000  0.00  0.00    +0.000 N 
ATOM      3  C   UNL     1      88.799  -1.556  23.426  0.00  0.00    +0.000 A 
ATOM      4  C   UNL     1      89.471  -2.707  22.778  0.00  0.00    +0.000 A 
ATOM      5  C   UNL     1      88.683  -1.551  24.761  0.00  0.00    +0.000 A 
ATOM      6  C   UNL     1      89.968  -3.761  23.576  0.00  0.00    +0.000 A 
ATOM      7  C   UNL     1      89.633  -2.790  21.381  0.00  0.00    +0.000 A 
ATOM      8  C   UNL     1      89.190  -2.637  25.632  0.00  0.00    +0.000 A 
ATOM      9  C   UNL     1      90.606  -4.854  22.955  0.00  0.00    +0.000 A 
ATOM     10  C   UNL     1      90.267  -3.880  20.784  0.00  0.00    +0.000 A 
ATOM     11  C   UNL     1      90.755  -4.911  21.571  0.00  0.00    +0.000 A 
ATOM     12  C   UNL     1      90.337  -4.804  25.812  0.00  0.00    +0.000 C 
ENDROOT
BRANCH  10  15
ATOM     13  S   UNL     1      89.032  -3.918  18.341  0.00  0.00    +0.000 S 
ATOM     14  N   UNL     1      91.352  -4.038  17.207  0.00  0.00    +0.000 NA
ATOM     15  C   UNL     1      90.419  -3.933  19.351  0.00  0.00    +0.000 A 
ATOM     16  C   UNL     1      91.556  -3.998  18.573  0.00  0.00    +0.000 A 
ATOM     17  C   UNL     1      90.060  -4.001  16.969  0.00  0.00    +0.000 A 
ENDBRANCH  10  15
BRANCH   3  18
ATOM     18  N   UNL     1      88.313  -0.526  22.665  0.00  0.00    +0.000 N 
ATOM     19  H   UNL     1      88.823  -0.245  21.838  0.00  0.00    +0.000 HD
BRANCH  18  20
ATOM     20  C   UNL     1      87.012   0.070  22.877  0.00  0.00    +0.000 C 
ATOM     21  C   UNL     1      86.978   1.463  22.243  0.00  0.00    +0.000 C 
ATOM     22  C   UNL     1      85.932  -0.841  22.288  0.00  0.00    +0.000 C 
ATOM     23  C   UNL     1      84.514   1.184  21.763  0.00  0.00    +0.000 C 
ATOM     24  C   UNL     1      85.592   2.091  22.352  0.00  0.00    +0.000 C 
ATOM     25  C   UNL     1      84.548  -0.207  22.395  0.00  0.00    +0.000 C 
BRANCH  23  26
ATOM     26  O   UNL     1      83.242   1.782  21.991  0.00  0.00    +0.000 OA
BRANCH  26  27
ATOM     27  C   UNL     1      83.274   3.180  21.742  0.00  0.00    +0.000 C 
BRANCH  27  28
ATOM     28  C   UNL     1      82.309   3.504  20.618  0.00  0.00    +0.000 C 
BRANCH  28  29
ATOM     29  O   UNL     1      83.046   3.727  19.422  0.00  0.00    +0.000 OA
ATOM     30  C   UNL     1      82.213   3.650  18.275  0.00  0.00    +0.000 C 
ENDBRANCH  28  29
ENDBRANCH  27  28
ENDBRANCH  26  27
ENDBRANCH  23  26
ENDBRANCH  18  20
ENDBRANCH   3  18
TORSDOF 7
