REMARK VINA RESULT:      -4.3      7.643     11.301
REMARK  Name = 155598690
REMARK  7 active torsions:
REMARK  status: ('A' for Active; 'I' for Inactive)
REMARK    1  A    between atoms: O_1  and  C_11
REMARK    2  A    between atoms: O_1  and  C_16
REMARK    3  A    between atoms: O_3  and  C_19
REMARK    4  A    between atoms: O_3  and  C_25
REMARK    5  A    between atoms: N_4  and  C_10
REMARK    6  A    between atoms: C_16  and  C_19
REMARK    7  A    between atoms: C_17  and  C_18
REMARK                            x       y       z     vdW  Elec       q    Type
REMARK                         _______ _______ _______ _____ _____    ______ ____
ROOT
ATOM      1  O   UNL     1      82.647   2.556  29.199  0.00  0.00    +0.000 OA
ATOM      2  N   UNL     1      84.123   3.964  28.096  0.00  0.00    +0.000 N 
ATOM      3  C   UNL     1      83.543   3.395  29.219  0.00  0.00    +0.000 C 
ATOM      4  H   UNL     1      84.822   4.692  28.216  0.00  0.00    +0.000 HD
ENDROOT
BRANCH   3  10
ATOM      5  N   UNL     1      85.235   4.536  30.540  0.00  0.00    +0.000 NA
ATOM      6  N   UNL     1      82.210   3.083  32.049  0.00  0.00    +0.000 N 
ATOM      7  N   UNL     1      85.124   4.843  32.951  0.00  0.00    +0.000 NA
ATOM      8  N   UNL     1      86.908   5.644  31.706  0.00  0.00    +0.000 N 
ATOM      9  N   UNL     1      88.695   6.746  32.431  0.00  0.00    +0.000 NA
ATOM     10  C   UNL     1      84.055   3.879  30.527  0.00  0.00    +0.000 A 
ATOM     11  C   UNL     1      83.395   3.694  31.728  0.00  0.00    +0.000 A 
ATOM     12  C   UNL     1      83.942   4.179  32.912  0.00  0.00    +0.000 A 
ATOM     13  C   UNL     1      85.691   4.972  31.735  0.00  0.00    +0.000 A 
ATOM     14  C   UNL     1      83.054   3.845  33.963  0.00  0.00    +0.000 A 
ATOM     15  C   UNL     1      81.993   3.169  33.402  0.00  0.00    +0.000 A 
ATOM     16  C   UNL     1      87.666   5.897  30.599  0.00  0.00    +0.000 A 
ATOM     17  C   UNL     1      87.565   6.173  32.782  0.00  0.00    +0.000 A 
ATOM     18  C   UNL     1      88.764   6.578  31.071  0.00  0.00    +0.000 A 
ATOM     19  H   UNL     1      81.586   2.635  31.390  0.00  0.00    +0.000 HD
ENDBRANCH   3  10
BRANCH   2  20
ATOM     20  C   UNL     1      83.716   3.618  26.755  0.00  0.00    +0.000 C 
ATOM     21  C   UNL     1      83.087   4.332  23.959  0.00  0.00    +0.000 C 
ATOM     22  C   UNL     1      82.406   4.322  26.393  0.00  0.00    +0.000 C 
ATOM     23  C   UNL     1      84.826   3.945  25.751  0.00  0.00    +0.000 C 
ATOM     24  C   UNL     1      81.981   4.006  24.961  0.00  0.00    +0.000 C 
ATOM     25  C   UNL     1      84.393   3.630  24.322  0.00  0.00    +0.000 C 
BRANCH  21  26
ATOM     26  O   UNL     1      82.691   3.914  22.658  0.00  0.00    +0.000 OA
BRANCH  26  27
ATOM     27  C   UNL     1      83.549   2.902  22.153  0.00  0.00    +0.000 C 
BRANCH  27  28
ATOM     28  C   UNL     1      83.537   2.953  20.637  0.00  0.00    +0.000 C 
BRANCH  28  29
ATOM     29  O   UNL     1      84.730   2.356  20.143  0.00  0.00    +0.000 OA
ATOM     30  C   UNL     1      85.753   2.345  21.130  0.00  0.00    +0.000 C 
ENDBRANCH  28  29
ENDBRANCH  27  28
ENDBRANCH  26  27
ENDBRANCH  21  26
ENDBRANCH   2  20
TORSDOF 6
