REMARK VINA RESULT:      -4.5      3.537      9.573
REMARK  Name = 155598690
REMARK  7 active torsions:
REMARK  status: ('A' for Active; 'I' for Inactive)
REMARK    1  A    between atoms: O_1  and  C_11
REMARK    2  A    between atoms: O_1  and  C_16
REMARK    3  A    between atoms: O_3  and  C_19
REMARK    4  A    between atoms: O_3  and  C_25
REMARK    5  A    between atoms: N_4  and  C_10
REMARK    6  A    between atoms: C_16  and  C_19
REMARK    7  A    between atoms: C_17  and  C_18
REMARK                            x       y       z     vdW  Elec       q    Type
REMARK                         _______ _______ _______ _____ _____    ______ ____
ROOT
ATOM      1  O   UNL     1      87.579   1.386  22.468  0.00  0.00    +0.000 OA
ATOM      2  N   UNL     1      86.279  -0.169  23.593  0.00  0.00    +0.000 N 
ATOM      3  C   UNL     1      86.494   1.016  22.908  0.00  0.00    +0.000 C 
ATOM      4  H   UNL     1      85.353  -0.363  23.966  0.00  0.00    +0.000 HD
ENDROOT
BRANCH   3  10
ATOM      5  N   UNL     1      84.694   2.357  23.841  0.00  0.00    +0.000 NA
ATOM      6  N   UNL     1      85.164   1.945  20.215  0.00  0.00    +0.000 N 
ATOM      7  N   UNL     1      83.039   3.552  22.517  0.00  0.00    +0.000 NA
ATOM      8  N   UNL     1      83.013   3.611  24.835  0.00  0.00    +0.000 N 
ATOM      9  N   UNL     1      81.587   4.681  26.159  0.00  0.00    +0.000 NA
ATOM     10  C   UNL     1      85.304   1.888  22.731  0.00  0.00    +0.000 A 
ATOM     11  C   UNL     1      84.788   2.245  21.499  0.00  0.00    +0.000 A 
ATOM     12  C   UNL     1      83.668   3.068  21.419  0.00  0.00    +0.000 A 
ATOM     13  C   UNL     1      83.613   3.149  23.669  0.00  0.00    +0.000 A 
ATOM     14  C   UNL     1      83.375   3.259  20.047  0.00  0.00    +0.000 A 
ATOM     15  C   UNL     1      84.314   2.555  19.326  0.00  0.00    +0.000 A 
ATOM     16  C   UNL     1      83.413   3.340  26.113  0.00  0.00    +0.000 A 
ATOM     17  C   UNL     1      81.914   4.420  24.913  0.00  0.00    +0.000 A 
ATOM     18  C   UNL     1      82.518   4.011  26.912  0.00  0.00    +0.000 A 
ATOM     19  H   UNL     1      85.950   1.362  19.957  0.00  0.00    +0.000 HD
ENDBRANCH   3  10
BRANCH   2  20
ATOM     20  C   UNL     1      87.339  -1.110  23.867  0.00  0.00    +0.000 C 
ATOM     21  C   UNL     1      88.795  -2.936  25.673  0.00  0.00    +0.000 C 
ATOM     22  C   UNL     1      88.265  -0.570  24.961  0.00  0.00    +0.000 C 
ATOM     23  C   UNL     1      86.764  -2.479  24.242  0.00  0.00    +0.000 C 
ATOM     24  C   UNL     1      89.367  -1.570  25.299  0.00  0.00    +0.000 C 
ATOM     25  C   UNL     1      87.872  -3.472  24.582  0.00  0.00    +0.000 C 
BRANCH  21  26
ATOM     26  O   UNL     1      89.858  -3.863  25.866  0.00  0.00    +0.000 OA
BRANCH  26  27
ATOM     27  C   UNL     1      89.718  -4.999  25.025  0.00  0.00    +0.000 C 
BRANCH  27  28
ATOM     28  C   UNL     1      90.968  -5.146  24.179  0.00  0.00    +0.000 C 
BRANCH  28  29
ATOM     29  O   UNL     1      90.649  -4.849  22.825  0.00  0.00    +0.000 OA
ATOM     30  C   UNL     1      90.992  -3.512  22.491  0.00  0.00    +0.000 C 
ENDBRANCH  28  29
ENDBRANCH  27  28
ENDBRANCH  26  27
ENDBRANCH  21  26
ENDBRANCH   2  20
TORSDOF 6
