REMARK VINA RESULT:      -4.6      5.937      8.711
REMARK  Name = 168679856
REMARK  8 active torsions:
REMARK  status: ('A' for Active; 'I' for Inactive)
REMARK    1  A    between atoms: O_4  and  C_23
REMARK    2  A    between atoms: O_4  and  C_28
REMARK    3  A    between atoms: O_5  and  C_24
REMARK    4  A    between atoms: O_5  and  C_29
REMARK    5  A    between atoms: N_10  and  C_19
REMARK    6  A    between atoms: C_14  and  C_18
REMARK    7  A    between atoms: C_16  and  C_20
REMARK    8  A    between atoms: C_23  and  C_24
REMARK                            x       y       z     vdW  Elec       q    Type
REMARK                         _______ _______ _______ _____ _____    ______ ____
ROOT
ATOM      1  N   UNL     1      84.932   2.940  24.284  0.00  0.00    +0.000 N 
ATOM      2  N   UNL     1      85.819   0.917  23.553  0.00  0.00    +0.000 NA
ATOM      3  N   UNL     1      84.867   2.497  22.002  0.00  0.00    +0.000 NA
ATOM      4  N   UNL     1      84.195   4.737  25.361  0.00  0.00    +0.000 NA
ATOM      5  C   UNL     1      86.082   0.105  22.508  0.00  0.00    +0.000 A 
ATOM      6  C   UNL     1      85.220   2.079  23.232  0.00  0.00    +0.000 A 
ATOM      7  C   UNL     1      85.160   1.635  21.004  0.00  0.00    +0.000 A 
ATOM      8  C   UNL     1      85.774   0.415  21.200  0.00  0.00    +0.000 A 
ATOM      9  C   UNL     1      85.199   2.720  25.606  0.00  0.00    +0.000 A 
ATOM     10  C   UNL     1      84.329   4.163  24.186  0.00  0.00    +0.000 A 
ATOM     11  C   UNL     1      84.736   3.842  26.251  0.00  0.00    +0.000 A 
ENDROOT
BRANCH   7  15
ATOM     12  F   UNL     1      85.414   3.202  19.216  0.00  0.00    +0.000 F 
ATOM     13  F   UNL     1      85.096   1.118  18.684  0.00  0.00    +0.000 F 
ATOM     14  F   UNL     1      83.453   2.307  19.466  0.00  0.00    +0.000 F 
ATOM     15  C   UNL     1      84.787   2.059  19.622  0.00  0.00    +0.000 C 
ENDBRANCH   7  15
BRANCH   5  18
ATOM     16  O   UNL     1      87.049  -1.925  21.913  0.00  0.00    +0.000 OA
ATOM     17  N   UNL     1      86.978  -1.410  24.207  0.00  0.00    +0.000 N 
ATOM     18  C   UNL     1      86.745  -1.184  22.841  0.00  0.00    +0.000 C 
ATOM     19  H   UNL     1      86.663  -0.686  24.848  0.00  0.00    +0.000 HD
BRANCH  17  22
ATOM     20  N   UNL     1      87.522  -4.798  25.527  0.00  0.00    +0.000 NA
ATOM     21  N   UNL     1      89.516  -3.489  25.866  0.00  0.00    +0.000 NA
ATOM     22  C   UNL     1      87.595  -2.504  24.803  0.00  0.00    +0.000 A 
ATOM     23  C   UNL     1      86.954  -3.717  24.954  0.00  0.00    +0.000 A 
ATOM     24  C   UNL     1      88.888  -2.448  25.282  0.00  0.00    +0.000 A 
ATOM     25  C   UNL     1      88.786  -4.617  25.954  0.00  0.00    +0.000 A 
BRANCH  25  26
ATOM     26  O   UNL     1      89.398  -5.700  26.543  0.00  0.00    +0.000 OA
BRANCH  26  27
ATOM     27  C   UNL     1      89.916  -5.502  27.851  0.00  0.00    +0.000 C 
BRANCH  27  28
ATOM     28  C   UNL     1      88.762  -5.411  28.831  0.00  0.00    +0.000 C 
BRANCH  28  29
ATOM     29  O   UNL     1      89.083  -4.463  29.841  0.00  0.00    +0.000 OA
ATOM     30  C   UNL     1      88.773  -3.139  29.429  0.00  0.00    +0.000 C 
ENDBRANCH  28  29
ENDBRANCH  27  28
ENDBRANCH  26  27
ENDBRANCH  25  26
ENDBRANCH  17  22
ENDBRANCH   5  18
TORSDOF 7
