REMARK VINA RESULT:      -4.7      2.446      5.360
REMARK  Name = 155598690
REMARK  7 active torsions:
REMARK  status: ('A' for Active; 'I' for Inactive)
REMARK    1  A    between atoms: O_1  and  C_11
REMARK    2  A    between atoms: O_1  and  C_16
REMARK    3  A    between atoms: O_3  and  C_19
REMARK    4  A    between atoms: O_3  and  C_25
REMARK    5  A    between atoms: N_4  and  C_10
REMARK    6  A    between atoms: C_16  and  C_19
REMARK    7  A    between atoms: C_17  and  C_18
REMARK                            x       y       z     vdW  Elec       q    Type
REMARK                         _______ _______ _______ _____ _____    ______ ____
ROOT
ATOM      1  O   UNL     1      88.850   0.382  25.268  0.00  0.00    +0.000 OA
ATOM      2  N   UNL     1      87.197  -0.617  23.985  0.00  0.00    +0.000 N 
ATOM      3  C   UNL     1      88.310  -0.621  24.812  0.00  0.00    +0.000 C 
ATOM      4  H   UNL     1      86.854  -1.499  23.614  0.00  0.00    +0.000 HD
ENDROOT
BRANCH   3  10
ATOM      5  N   UNL     1      88.704  -2.436  26.381  0.00  0.00    +0.000 NA
ATOM      6  N   UNL     1      89.903  -2.546  22.903  0.00  0.00    +0.000 N 
ATOM      7  N   UNL     1      89.905  -4.483  25.844  0.00  0.00    +0.000 NA
ATOM      8  N   UNL     1      89.024  -4.110  27.956  0.00  0.00    +0.000 N 
ATOM      9  N   UNL     1      89.112  -5.444  29.729  0.00  0.00    +0.000 NA
ATOM     10  C   UNL     1      88.876  -1.958  25.129  0.00  0.00    +0.000 A 
ATOM     11  C   UNL     1      89.566  -2.737  24.218  0.00  0.00    +0.000 A 
ATOM     12  C   UNL     1      90.064  -3.981  24.595  0.00  0.00    +0.000 A 
ATOM     13  C   UNL     1      89.222  -3.653  26.658  0.00  0.00    +0.000 A 
ATOM     14  C   UNL     1      90.715  -4.541  23.468  0.00  0.00    +0.000 A 
ATOM     15  C   UNL     1      90.600  -3.633  22.438  0.00  0.00    +0.000 A 
ATOM     16  C   UNL     1      88.366  -3.450  28.954  0.00  0.00    +0.000 A 
ATOM     17  C   UNL     1      89.454  -5.302  28.468  0.00  0.00    +0.000 A 
ATOM     18  C   UNL     1      88.433  -4.293  30.038  0.00  0.00    +0.000 A 
ATOM     19  H   UNL     1      89.674  -1.727  22.354  0.00  0.00    +0.000 HD
ENDBRANCH   3  10
BRANCH   2  20
ATOM     20  C   UNL     1      86.549   0.603  23.566  0.00  0.00    +0.000 C 
ATOM     21  C   UNL     1      84.464   2.059  22.065  0.00  0.00    +0.000 C 
ATOM     22  C   UNL     1      86.631   0.759  22.045  0.00  0.00    +0.000 C 
ATOM     23  C   UNL     1      85.099   0.641  24.057  0.00  0.00    +0.000 C 
ATOM     24  C   UNL     1      85.911   2.020  21.575  0.00  0.00    +0.000 C 
ATOM     25  C   UNL     1      84.384   1.902  23.581  0.00  0.00    +0.000 C 
BRANCH  21  26
ATOM     26  O   UNL     1      83.871   3.301  21.702  0.00  0.00    +0.000 OA
BRANCH  26  27
ATOM     27  C   UNL     1      82.738   3.112  20.867  0.00  0.00    +0.000 C 
BRANCH  27  28
ATOM     28  C   UNL     1      83.128   3.400  19.430  0.00  0.00    +0.000 C 
BRANCH  28  29
ATOM     29  O   UNL     1      83.209   2.172  18.717  0.00  0.00    +0.000 OA
ATOM     30  C   UNL     1      84.487   2.001  18.119  0.00  0.00    +0.000 C 
ENDBRANCH  28  29
ENDBRANCH  27  28
ENDBRANCH  26  27
ENDBRANCH  21  26
ENDBRANCH   2  20
TORSDOF 6
