REMARK VINA RESULT:      -6.1      1.661      2.444
REMARK  Name = 118736856
REMARK  9 active torsions:
REMARK  status: ('A' for Active; 'I' for Inactive)
REMARK    1  A    between atoms: O_2  and  C_11
REMARK    2  A    between atoms: O_2  and  C_15
REMARK    3  A    between atoms: O_3  and  C_19
REMARK    4  A    between atoms: O_3  and  C_27
REMARK    5  A    between atoms: N_5  and  C_8
REMARK    6  A    between atoms: N_5  and  C_14
REMARK    7  A    between atoms: N_6  and  C_25
REMARK    8  A    between atoms: C_15  and  C_19
REMARK    9  A    between atoms: C_23  and  C_26
REMARK                            x       y       z     vdW  Elec       q    Type
REMARK                         _______ _______ _______ _____ _____    ______ ____
ROOT
ATOM      1  O   UNL     1      84.320   4.397  26.179  0.00  0.00    +0.000 OA
ATOM      2  N   UNL     1      83.593   3.915  24.018  0.00  0.00    +0.000 N 
ATOM      3  C   UNL     1      86.062   2.522  23.699  0.00  0.00    +0.000 A 
ATOM      4  C   UNL     1      85.086   2.583  22.586  0.00  0.00    +0.000 A 
ATOM      5  C   UNL     1      85.757   3.134  24.851  0.00  0.00    +0.000 A 
ATOM      6  C   UNL     1      83.869   3.278  22.765  0.00  0.00    +0.000 A 
ATOM      7  C   UNL     1      85.330   1.967  21.342  0.00  0.00    +0.000 A 
ATOM      8  C   UNL     1      84.493   3.872  25.079  0.00  0.00    +0.000 A 
ATOM      9  C   UNL     1      82.944   3.332  21.703  0.00  0.00    +0.000 A 
ATOM     10  C   UNL     1      84.401   2.032  20.302  0.00  0.00    +0.000 A 
ATOM     11  C   UNL     1      83.208   2.714  20.483  0.00  0.00    +0.000 A 
ATOM     12  C   UNL     1      82.330   4.630  24.188  0.00  0.00    +0.000 C 
ENDROOT
BRANCH  10  15
ATOM     13  S   UNL     1      84.608   2.292  17.584  0.00  0.00    +0.000 S 
ATOM     14  N   UNL     1      85.226  -0.213  17.426  0.00  0.00    +0.000 NA
ATOM     15  C   UNL     1      84.681   1.390  19.041  0.00  0.00    +0.000 A 
ATOM     16  C   UNL     1      85.024   0.083  18.760  0.00  0.00    +0.000 A 
ATOM     17  C   UNL     1      85.034   0.875  16.714  0.00  0.00    +0.000 A 
ENDBRANCH  10  15
BRANCH   3  18
ATOM     18  N   UNL     1      87.245   1.851  23.540  0.00  0.00    +0.000 N 
ATOM     19  H   UNL     1      88.013   2.316  23.073  0.00  0.00    +0.000 HD
BRANCH  18  20
ATOM     20  C   UNL     1      87.523   0.575  24.163  0.00  0.00    +0.000 C 
ATOM     21  C   UNL     1      87.871  -0.454  23.085  0.00  0.00    +0.000 C 
ATOM     22  C   UNL     1      88.661   0.737  25.173  0.00  0.00    +0.000 C 
ATOM     23  C   UNL     1      89.408  -1.632  24.708  0.00  0.00    +0.000 C 
ATOM     24  C   UNL     1      88.271  -1.792  23.701  0.00  0.00    +0.000 C 
ATOM     25  C   UNL     1      89.061  -0.603  25.784  0.00  0.00    +0.000 C 
BRANCH  23  26
ATOM     26  O   UNL     1      89.657  -2.894  25.317  0.00  0.00    +0.000 OA
BRANCH  26  27
ATOM     27  C   UNL     1      88.997  -3.007  26.569  0.00  0.00    +0.000 C 
BRANCH  27  28
ATOM     28  C   UNL     1      87.931  -4.081  26.470  0.00  0.00    +0.000 C 
BRANCH  28  29
ATOM     29  O   UNL     1      87.011  -3.924  27.543  0.00  0.00    +0.000 OA
ATOM     30  C   UNL     1      87.664  -3.984  28.803  0.00  0.00    +0.000 C 
ENDBRANCH  28  29
ENDBRANCH  27  28
ENDBRANCH  26  27
ENDBRANCH  23  26
ENDBRANCH  18  20
ENDBRANCH   3  18
TORSDOF 7
