REMARK VINA RESULT:      -4.3      3.726      9.891
REMARK  Name = 155598690
REMARK  7 active torsions:
REMARK  status: ('A' for Active; 'I' for Inactive)
REMARK    1  A    between atoms: O_1  and  C_11
REMARK    2  A    between atoms: O_1  and  C_16
REMARK    3  A    between atoms: O_3  and  C_19
REMARK    4  A    between atoms: O_3  and  C_25
REMARK    5  A    between atoms: N_4  and  C_10
REMARK    6  A    between atoms: C_16  and  C_19
REMARK    7  A    between atoms: C_17  and  C_18
REMARK                            x       y       z     vdW  Elec       q    Type
REMARK                         _______ _______ _______ _____ _____    ______ ____
ROOT
ATOM      1  O   UNL     1      87.251   2.733  23.655  0.00  0.00    +0.000 OA
ATOM      2  N   UNL     1      86.348   0.598  23.658  0.00  0.00    +0.000 N 
ATOM      3  C   UNL     1      86.281   1.982  23.692  0.00  0.00    +0.000 C 
ATOM      4  H   UNL     1      85.490   0.059  23.748  0.00  0.00    +0.000 HD
ENDROOT
BRANCH   3  10
ATOM      5  N   UNL     1      84.447   2.839  25.038  0.00  0.00    +0.000 NA
ATOM      6  N   UNL     1      84.280   2.671  21.366  0.00  0.00    +0.000 N 
ATOM      7  N   UNL     1      82.344   3.665  24.135  0.00  0.00    +0.000 NA
ATOM      8  N   UNL     1      82.758   3.638  26.416  0.00  0.00    +0.000 N 
ATOM      9  N   UNL     1      81.419   4.304  28.056  0.00  0.00    +0.000 NA
ATOM     10  C   UNL     1      84.917   2.562  23.803  0.00  0.00    +0.000 A 
ATOM     11  C   UNL     1      84.105   2.832  22.716  0.00  0.00    +0.000 A 
ATOM     12  C   UNL     1      82.839   3.377  22.906  0.00  0.00    +0.000 A 
ATOM     13  C   UNL     1      83.207   3.367  25.128  0.00  0.00    +0.000 A 
ATOM     14  C   UNL     1      82.248   3.542  21.629  0.00  0.00    +0.000 A 
ATOM     15  C   UNL     1      83.161   3.098  20.697  0.00  0.00    +0.000 A 
ATOM     16  C   UNL     1      83.449   3.422  27.574  0.00  0.00    +0.000 A 
ATOM     17  C   UNL     1      81.546   4.168  26.755  0.00  0.00    +0.000 A 
ATOM     18  C   UNL     1      82.602   3.841  28.573  0.00  0.00    +0.000 A 
ATOM     19  H   UNL     1      85.109   2.293  20.925  0.00  0.00    +0.000 HD
ENDBRANCH   3  10
BRANCH   2  20
ATOM     20  C   UNL     1      87.601  -0.115  23.578  0.00  0.00    +0.000 C 
ATOM     21  C   UNL     1      89.257  -2.523  24.001  0.00  0.00    +0.000 C 
ATOM     22  C   UNL     1      88.085  -0.508  24.976  0.00  0.00    +0.000 C 
ATOM     23  C   UNL     1      87.470  -1.337  22.665  0.00  0.00    +0.000 C 
ATOM     24  C   UNL     1      89.385  -1.304  24.912  0.00  0.00    +0.000 C 
ATOM     25  C   UNL     1      88.772  -2.130  22.607  0.00  0.00    +0.000 C 
BRANCH  21  26
ATOM     26  O   UNL     1      90.521  -3.166  23.880  0.00  0.00    +0.000 OA
BRANCH  26  27
ATOM     27  C   UNL     1      90.399  -4.577  23.984  0.00  0.00    +0.000 C 
BRANCH  27  28
ATOM     28  C   UNL     1      89.299  -4.908  24.974  0.00  0.00    +0.000 C 
BRANCH  28  29
ATOM     29  O   UNL     1      89.875  -5.100  26.260  0.00  0.00    +0.000 OA
ATOM     30  C   UNL     1      89.024  -4.615  27.289  0.00  0.00    +0.000 C 
ENDBRANCH  28  29
ENDBRANCH  27  28
ENDBRANCH  26  27
ENDBRANCH  21  26
ENDBRANCH   2  20
TORSDOF 6
