REMARK VINA RESULT:      -5.4      4.187      9.860
REMARK  Name = 118736856
REMARK  9 active torsions:
REMARK  status: ('A' for Active; 'I' for Inactive)
REMARK    1  A    between atoms: O_2  and  C_11
REMARK    2  A    between atoms: O_2  and  C_15
REMARK    3  A    between atoms: O_3  and  C_19
REMARK    4  A    between atoms: O_3  and  C_27
REMARK    5  A    between atoms: N_5  and  C_8
REMARK    6  A    between atoms: N_5  and  C_14
REMARK    7  A    between atoms: N_6  and  C_25
REMARK    8  A    between atoms: C_15  and  C_19
REMARK    9  A    between atoms: C_23  and  C_26
REMARK                            x       y       z     vdW  Elec       q    Type
REMARK                         _______ _______ _______ _____ _____    ______ ____
ROOT
ATOM      1  O   UNL     1      90.271  -3.063  21.174  0.00  0.00    +0.000 OA
ATOM      2  N   UNL     1      90.218  -4.249  23.180  0.00  0.00    +0.000 N 
ATOM      3  C   UNL     1      88.907  -1.966  24.279  0.00  0.00    +0.000 A 
ATOM      4  C   UNL     1      89.184  -3.151  25.124  0.00  0.00    +0.000 A 
ATOM      5  C   UNL     1      89.285  -1.995  22.993  0.00  0.00    +0.000 A 
ATOM      6  C   UNL     1      89.835  -4.271  24.560  0.00  0.00    +0.000 A 
ATOM      7  C   UNL     1      88.820  -3.202  26.484  0.00  0.00    +0.000 A 
ATOM      8  C   UNL     1      89.969  -3.149  22.365  0.00  0.00    +0.000 A 
ATOM      9  C   UNL     1      90.096  -5.396  25.368  0.00  0.00    +0.000 A 
ATOM     10  C   UNL     1      89.088  -4.324  27.269  0.00  0.00    +0.000 A 
ATOM     11  C   UNL     1      89.724  -5.421  26.711  0.00  0.00    +0.000 A 
ATOM     12  C   UNL     1      90.889  -5.416  22.611  0.00  0.00    +0.000 C 
ENDROOT
BRANCH  10  15
ATOM     13  S   UNL     1      87.098  -3.928  29.108  0.00  0.00    +0.000 S 
ATOM     14  N   UNL     1      88.750  -4.579  30.986  0.00  0.00    +0.000 NA
ATOM     15  C   UNL     1      88.700  -4.345  28.658  0.00  0.00    +0.000 A 
ATOM     16  C   UNL     1      89.429  -4.662  29.786  0.00  0.00    +0.000 A 
ATOM     17  C   UNL     1      87.514  -4.202  30.751  0.00  0.00    +0.000 A 
ENDBRANCH  10  15
BRANCH   3  18
ATOM     18  N   UNL     1      88.277  -0.873  24.811  0.00  0.00    +0.000 N 
ATOM     19  H   UNL     1      88.440  -0.639  25.781  0.00  0.00    +0.000 HD
BRANCH  18  20
ATOM     20  C   UNL     1      87.527   0.074  24.016  0.00  0.00    +0.000 C 
ATOM     21  C   UNL     1      86.065  -0.372  23.933  0.00  0.00    +0.000 C 
ATOM     22  C   UNL     1      87.653   1.469  24.632  0.00  0.00    +0.000 C 
ATOM     23  C   UNL     1      85.336   2.043  23.803  0.00  0.00    +0.000 C 
ATOM     24  C   UNL     1      85.211   0.650  23.189  0.00  0.00    +0.000 C 
ATOM     25  C   UNL     1      86.795   2.489  23.887  0.00  0.00    +0.000 C 
BRANCH  23  26
ATOM     26  O   UNL     1      84.601   2.961  23.000  0.00  0.00    +0.000 OA
BRANCH  26  27
ATOM     27  C   UNL     1      83.324   3.233  23.560  0.00  0.00    +0.000 C 
BRANCH  27  28
ATOM     28  C   UNL     1      83.498   4.120  24.778  0.00  0.00    +0.000 C 
BRANCH  28  29
ATOM     29  O   UNL     1      83.455   5.482  24.371  0.00  0.00    +0.000 OA
ATOM     30  C   UNL     1      82.131   5.891  24.057  0.00  0.00    +0.000 C 
ENDBRANCH  28  29
ENDBRANCH  27  28
ENDBRANCH  26  27
ENDBRANCH  23  26
ENDBRANCH  18  20
ENDBRANCH   3  18
TORSDOF 7
