REMARK VINA RESULT:      -5.2      6.205      7.399
REMARK  Name = 168679856
REMARK  8 active torsions:
REMARK  status: ('A' for Active; 'I' for Inactive)
REMARK    1  A    between atoms: O_4  and  C_23
REMARK    2  A    between atoms: O_4  and  C_28
REMARK    3  A    between atoms: O_5  and  C_24
REMARK    4  A    between atoms: O_5  and  C_29
REMARK    5  A    between atoms: N_10  and  C_19
REMARK    6  A    between atoms: C_14  and  C_18
REMARK    7  A    between atoms: C_16  and  C_20
REMARK    8  A    between atoms: C_23  and  C_24
REMARK                            x       y       z     vdW  Elec       q    Type
REMARK                         _______ _______ _______ _____ _____    ______ ____
ROOT
ATOM      1  N   UNL     1      89.209  -3.439  23.444  0.00  0.00    +0.000 N 
ATOM      2  N   UNL     1      87.524  -2.139  22.503  0.00  0.00    +0.000 NA
ATOM      3  N   UNL     1      88.914  -1.289  24.280  0.00  0.00    +0.000 NA
ATOM      4  N   UNL     1      90.692  -4.970  24.070  0.00  0.00    +0.000 NA
ATOM      5  C   UNL     1      86.874  -0.957  22.496  0.00  0.00    +0.000 A 
ATOM      6  C   UNL     1      88.518  -2.234  23.407  0.00  0.00    +0.000 A 
ATOM      7  C   UNL     1      88.220  -0.132  24.217  0.00  0.00    +0.000 A 
ATOM      8  C   UNL     1      87.181   0.092  23.337  0.00  0.00    +0.000 A 
ATOM      9  C   UNL     1      88.977  -4.530  22.654  0.00  0.00    +0.000 A 
ATOM     10  C   UNL     1      90.247  -3.751  24.277  0.00  0.00    +0.000 A 
ATOM     11  C   UNL     1      89.904  -5.461  23.058  0.00  0.00    +0.000 A 
ENDROOT
BRANCH   7  15
ATOM     12  F   UNL     1      89.244   0.474  26.291  0.00  0.00    +0.000 F 
ATOM     13  F   UNL     1      89.501   1.832  24.612  0.00  0.00    +0.000 F 
ATOM     14  F   UNL     1      87.581   1.697  25.623  0.00  0.00    +0.000 F 
ATOM     15  C   UNL     1      88.626   0.945  25.168  0.00  0.00    +0.000 C 
ENDBRANCH   7  15
BRANCH   5  18
ATOM     16  O   UNL     1      84.908  -1.701  21.498  0.00  0.00    +0.000 OA
ATOM     17  N   UNL     1      85.825   0.308  20.684  0.00  0.00    +0.000 N 
ATOM     18  C   UNL     1      85.772  -0.830  21.506  0.00  0.00    +0.000 C 
ATOM     19  H   UNL     1      86.614   0.934  20.825  0.00  0.00    +0.000 HD
BRANCH  17  22
ATOM     20  N   UNL     1      84.151   0.572  17.422  0.00  0.00    +0.000 NA
ATOM     21  N   UNL     1      83.013   1.982  19.010  0.00  0.00    +0.000 NA
ATOM     22  C   UNL     1      84.927   0.696  19.696  0.00  0.00    +0.000 A 
ATOM     23  C   UNL     1      85.005   0.217  18.404  0.00  0.00    +0.000 A 
ATOM     24  C   UNL     1      83.900   1.584  19.944  0.00  0.00    +0.000 A 
ATOM     25  C   UNL     1      83.193   1.445  17.788  0.00  0.00    +0.000 A 
BRANCH  25  26
ATOM     26  O   UNL     1      82.303   1.828  16.811  0.00  0.00    +0.000 OA
BRANCH  26  27
ATOM     27  C   UNL     1      82.855   2.451  15.660  0.00  0.00    +0.000 C 
BRANCH  27  28
ATOM     28  C   UNL     1      83.382   3.821  16.045  0.00  0.00    +0.000 C 
BRANCH  28  29
ATOM     29  O   UNL     1      84.798   3.829  15.910  0.00  0.00    +0.000 OA
ATOM     30  C   UNL     1      85.435   4.150  17.137  0.00  0.00    +0.000 C 
ENDBRANCH  28  29
ENDBRANCH  27  28
ENDBRANCH  26  27
ENDBRANCH  25  26
ENDBRANCH  17  22
ENDBRANCH   5  18
TORSDOF 7
