REMARK VINA RESULT:      -4.9      3.681      8.700
REMARK  Name = 155598690
REMARK  7 active torsions:
REMARK  status: ('A' for Active; 'I' for Inactive)
REMARK    1  A    between atoms: O_1  and  C_11
REMARK    2  A    between atoms: O_1  and  C_16
REMARK    3  A    between atoms: O_3  and  C_19
REMARK    4  A    between atoms: O_3  and  C_25
REMARK    5  A    between atoms: N_4  and  C_10
REMARK    6  A    between atoms: C_16  and  C_19
REMARK    7  A    between atoms: C_17  and  C_18
REMARK                            x       y       z     vdW  Elec       q    Type
REMARK                         _______ _______ _______ _____ _____    ______ ____
ROOT
ATOM      1  O   UNL     1      90.992  -4.204  22.435  0.00  0.00    +0.000 OA
ATOM      2  N   UNL     1      90.122  -2.706  20.893  0.00  0.00    +0.000 N 
ATOM      3  C   UNL     1      90.281  -3.240  22.162  0.00  0.00    +0.000 C 
ATOM      4  H   UNL     1      89.467  -1.939  20.759  0.00  0.00    +0.000 HD
ENDROOT
BRANCH   3  10
ATOM      5  N   UNL     1      88.880  -1.420  22.958  0.00  0.00    +0.000 NA
ATOM      6  N   UNL     1      89.868  -4.231  25.117  0.00  0.00    +0.000 N 
ATOM      7  N   UNL     1      87.990  -1.254  25.217  0.00  0.00    +0.000 NA
ATOM      8  N   UNL     1      87.548   0.364  23.615  0.00  0.00    +0.000 N 
ATOM      9  N   UNL     1      86.333   2.208  23.836  0.00  0.00    +0.000 NA
ATOM     10  C   UNL     1      89.501  -2.586  23.244  0.00  0.00    +0.000 A 
ATOM     11  C   UNL     1      89.375  -3.099  24.522  0.00  0.00    +0.000 A 
ATOM     12  C   UNL     1      88.623  -2.424  25.478  0.00  0.00    +0.000 A 
ATOM     13  C   UNL     1      88.172  -0.834  23.948  0.00  0.00    +0.000 A 
ATOM     14  C   UNL     1      88.675  -3.179  26.675  0.00  0.00    +0.000 A 
ATOM     15  C   UNL     1      89.450  -4.290  26.423  0.00  0.00    +0.000 A 
ATOM     16  C   UNL     1      87.586   0.984  22.399  0.00  0.00    +0.000 A 
ATOM     17  C   UNL     1      86.783   1.135  24.445  0.00  0.00    +0.000 A 
ATOM     18  C   UNL     1      86.829   2.121  22.560  0.00  0.00    +0.000 A 
ATOM     19  H   UNL     1      90.453  -4.922  24.665  0.00  0.00    +0.000 HD
ENDBRANCH   3  10
BRANCH   2  20
ATOM     20  C   UNL     1      90.792  -3.247  19.735  0.00  0.00    +0.000 C 
ATOM     21  C   UNL     1      91.626  -3.103  16.906  0.00  0.00    +0.000 C 
ATOM     22  C   UNL     1      89.792  -3.490  18.601  0.00  0.00    +0.000 C 
ATOM     23  C   UNL     1      91.933  -2.327  19.291  0.00  0.00    +0.000 C 
ATOM     24  C   UNL     1      90.488  -4.019  17.350  0.00  0.00    +0.000 C 
ATOM     25  C   UNL     1      92.621  -2.861  18.038  0.00  0.00    +0.000 C 
BRANCH  21  26
ATOM     26  O   UNL     1      92.316  -3.693  15.810  0.00  0.00    +0.000 OA
BRANCH  26  27
ATOM     27  C   UNL     1      93.273  -4.645  16.250  0.00  0.00    +0.000 C 
BRANCH  27  28
ATOM     28  C   UNL     1      94.541  -4.487  15.433  0.00  0.00    +0.000 C 
BRANCH  28  29
ATOM     29  O   UNL     1      95.513  -3.801  16.213  0.00  0.00    +0.000 OA
ATOM     30  C   UNL     1      95.648  -2.447  15.803  0.00  0.00    +0.000 C 
ENDBRANCH  28  29
ENDBRANCH  27  28
ENDBRANCH  26  27
ENDBRANCH  21  26
ENDBRANCH   2  20
TORSDOF 6
