REMARK VINA RESULT:      -4.3      3.598      9.613
REMARK  Name = 168679856
REMARK  8 active torsions:
REMARK  status: ('A' for Active; 'I' for Inactive)
REMARK    1  A    between atoms: O_4  and  C_23
REMARK    2  A    between atoms: O_4  and  C_28
REMARK    3  A    between atoms: O_5  and  C_24
REMARK    4  A    between atoms: O_5  and  C_29
REMARK    5  A    between atoms: N_10  and  C_19
REMARK    6  A    between atoms: C_14  and  C_18
REMARK    7  A    between atoms: C_16  and  C_20
REMARK    8  A    between atoms: C_23  and  C_24
REMARK                            x       y       z     vdW  Elec       q    Type
REMARK                         _______ _______ _______ _____ _____    ______ ____
ROOT
ATOM      1  N   UNL     1      92.294  -2.922  17.516  0.00  0.00    +0.000 N 
ATOM      2  N   UNL     1      91.294  -3.326  19.578  0.00  0.00    +0.000 NA
ATOM      3  N   UNL     1      90.019  -3.404  17.535  0.00  0.00    +0.000 NA
ATOM      4  N   UNL     1      93.597  -2.484  15.771  0.00  0.00    +0.000 NA
ATOM      5  C   UNL     1      90.165  -3.626  20.251  0.00  0.00    +0.000 A 
ATOM      6  C   UNL     1      91.151  -3.231  18.242  0.00  0.00    +0.000 A 
ATOM      7  C   UNL     1      88.928  -3.702  18.272  0.00  0.00    +0.000 A 
ATOM      8  C   UNL     1      88.942  -3.827  19.646  0.00  0.00    +0.000 A 
ATOM      9  C   UNL     1      93.543  -2.705  18.026  0.00  0.00    +0.000 A 
ATOM     10  C   UNL     1      92.375  -2.778  16.159  0.00  0.00    +0.000 A 
ATOM     11  C   UNL     1      94.330  -2.437  16.931  0.00  0.00    +0.000 A 
ENDROOT
BRANCH   7  15
ATOM     12  F   UNL     1      87.766  -4.757  16.468  0.00  0.00    +0.000 F 
ATOM     13  F   UNL     1      86.662  -4.422  18.311  0.00  0.00    +0.000 F 
ATOM     14  F   UNL     1      87.134  -2.751  17.004  0.00  0.00    +0.000 F 
ATOM     15  C   UNL     1      87.650  -3.902  17.527  0.00  0.00    +0.000 C 
ENDBRANCH   7  15
BRANCH   5  18
ATOM     16  O   UNL     1      91.300  -4.290  22.170  0.00  0.00    +0.000 OA
ATOM     17  N   UNL     1      89.262  -3.157  22.476  0.00  0.00    +0.000 N 
ATOM     18  C   UNL     1      90.301  -3.734  21.728  0.00  0.00    +0.000 C 
ATOM     19  H   UNL     1      88.503  -2.731  21.948  0.00  0.00    +0.000 HD
BRANCH  17  22
ATOM     20  N   UNL     1      89.163  -1.797  25.890  0.00  0.00    +0.000 NA
ATOM     21  N   UNL     1      88.726  -4.165  25.971  0.00  0.00    +0.000 NA
ATOM     22  C   UNL     1      89.135  -3.086  23.859  0.00  0.00    +0.000 A 
ATOM     23  C   UNL     1      89.280  -1.901  24.550  0.00  0.00    +0.000 A 
ATOM     24  C   UNL     1      88.856  -4.197  24.629  0.00  0.00    +0.000 A 
ATOM     25  C   UNL     1      88.889  -2.950  26.529  0.00  0.00    +0.000 A 
BRANCH  25  26
ATOM     26  O   UNL     1      88.762  -2.881  27.897  0.00  0.00    +0.000 OA
BRANCH  26  27
ATOM     27  C   UNL     1      87.874  -3.812  28.499  0.00  0.00    +0.000 C 
BRANCH  27  28
ATOM     28  C   UNL     1      88.359  -4.120  29.903  0.00  0.00    +0.000 C 
BRANCH  28  29
ATOM     29  O   UNL     1      89.653  -4.706  29.831  0.00  0.00    +0.000 OA
ATOM     30  C   UNL     1      90.397  -4.472  31.017  0.00  0.00    +0.000 C 
ENDBRANCH  28  29
ENDBRANCH  27  28
ENDBRANCH  26  27
ENDBRANCH  25  26
ENDBRANCH  17  22
ENDBRANCH   5  18
TORSDOF 7
