REMARK VINA RESULT:      -5.2      5.367      9.308
REMARK  Name = 168679856
REMARK  8 active torsions:
REMARK  status: ('A' for Active; 'I' for Inactive)
REMARK    1  A    between atoms: O_4  and  C_23
REMARK    2  A    between atoms: O_4  and  C_28
REMARK    3  A    between atoms: O_5  and  C_24
REMARK    4  A    between atoms: O_5  and  C_29
REMARK    5  A    between atoms: N_10  and  C_19
REMARK    6  A    between atoms: C_14  and  C_18
REMARK    7  A    between atoms: C_16  and  C_20
REMARK    8  A    between atoms: C_23  and  C_24
REMARK                            x       y       z     vdW  Elec       q    Type
REMARK                         _______ _______ _______ _____ _____    ______ ____
ROOT
ATOM      1  N   UNL     1      89.088  -3.710  26.656  0.00  0.00    +0.000 N 
ATOM      2  N   UNL     1      88.620  -1.694  25.592  0.00  0.00    +0.000 NA
ATOM      3  N   UNL     1      89.582  -3.548  24.389  0.00  0.00    +0.000 NA
ATOM      4  N   UNL     1      89.383  -5.445  28.011  0.00  0.00    +0.000 NA
ATOM      5  C   UNL     1      88.646  -0.984  24.445  0.00  0.00    +0.000 A 
ATOM      6  C   UNL     1      89.097  -2.950  25.493  0.00  0.00    +0.000 A 
ATOM      7  C   UNL     1      89.577  -2.780  23.278  0.00  0.00    +0.000 A 
ATOM      8  C   UNL     1      89.116  -1.480  23.247  0.00  0.00    +0.000 A 
ATOM      9  C   UNL     1      88.643  -3.306  27.883  0.00  0.00    +0.000 A 
ATOM     10  C   UNL     1      89.522  -5.000  26.781  0.00  0.00    +0.000 A 
ATOM     11  C   UNL     1      88.835  -4.393  28.703  0.00  0.00    +0.000 A 
ENDROOT
BRANCH   7  15
ATOM     12  F   UNL     1      89.846  -4.742  21.938  0.00  0.00    +0.000 F 
ATOM     13  F   UNL     1      89.577  -2.849  20.901  0.00  0.00    +0.000 F 
ATOM     14  F   UNL     1      91.461  -3.292  21.892  0.00  0.00    +0.000 F 
ATOM     15  C   UNL     1      90.107  -3.404  22.030  0.00  0.00    +0.000 C 
ENDBRANCH   7  15
BRANCH   5  18
ATOM     16  O   UNL     1      88.940   1.317  24.614  0.00  0.00    +0.000 OA
ATOM     17  N   UNL     1      86.726   0.532  24.486  0.00  0.00    +0.000 N 
ATOM     18  C   UNL     1      88.124   0.405  24.532  0.00  0.00    +0.000 C 
ATOM     19  H   UNL     1      86.193  -0.333  24.414  0.00  0.00    +0.000 HD
BRANCH  17  22
ATOM     20  N   UNL     1      84.427   3.212  23.465  0.00  0.00    +0.000 NA
ATOM     21  N   UNL     1      85.231   3.666  25.690  0.00  0.00    +0.000 NA
ATOM     22  C   UNL     1      85.967   1.696  24.523  0.00  0.00    +0.000 A 
ATOM     23  C   UNL     1      85.176   2.090  23.463  0.00  0.00    +0.000 A 
ATOM     24  C   UNL     1      85.954   2.531  25.621  0.00  0.00    +0.000 A 
ATOM     25  C   UNL     1      84.500   3.943  24.594  0.00  0.00    +0.000 A 
BRANCH  25  26
ATOM     26  O   UNL     1      83.748   5.094  24.631  0.00  0.00    +0.000 OA
BRANCH  26  27
ATOM     27  C   UNL     1      82.375   4.966  24.290  0.00  0.00    +0.000 C 
BRANCH  27  28
ATOM     28  C   UNL     1      81.571   4.730  25.554  0.00  0.00    +0.000 C 
BRANCH  28  29
ATOM     29  O   UNL     1      81.437   3.330  25.765  0.00  0.00    +0.000 OA
ATOM     30  C   UNL     1      81.474   3.007  27.148  0.00  0.00    +0.000 C 
ENDBRANCH  28  29
ENDBRANCH  27  28
ENDBRANCH  26  27
ENDBRANCH  25  26
ENDBRANCH  17  22
ENDBRANCH   5  18
TORSDOF 7
