REMARK VINA RESULT:      -5.2     13.093     16.713
REMARK  Name = 441667
REMARK  12 active torsions:
REMARK  status: ('A' for Active; 'I' for Inactive)
REMARK    1  A    between atoms: O_2  and  C_16
REMARK    2  A    between atoms: O_2  and  C_18
REMARK    3  A    between atoms: O_3  and  C_12
REMARK    4  A    between atoms: O_4  and  C_13
REMARK    5  A    between atoms: O_5  and  C_14
REMARK    6  A    between atoms: O_6  and  C_17
REMARK    7  A    between atoms: O_8  and  C_24
REMARK    8  A    between atoms: O_9  and  C_29
REMARK    9  A    between atoms: O_10  and  C_30
REMARK   10  A    between atoms: O_11  and  C_32
REMARK   11  A    between atoms: C_15  and  C_17
REMARK   12  A    between atoms: C_19  and  C_23
REMARK                            x       y       z     vdW  Elec       q    Type
REMARK                         _______ _______ _______ _____ _____    ______ ____
ROOT
ATOM      1  O   UNL     1      92.079  -3.247  20.430  0.00  0.00    +0.000 OA
ATOM      2  C   UNL     1      89.707  -3.826  20.017  0.00  0.00    +0.000 A 
ATOM      3  C   UNL     1      90.931  -3.683  20.867  0.00  0.00    +0.000 A 
ATOM      4  C   UNL     1      89.838  -3.524  18.719  0.00  0.00    +0.000 A 
ATOM      5  C   UNL     1      91.118  -3.070  18.186  0.00  0.00    +0.000 A 
ATOM      6  C   UNL     1      92.198  -2.934  19.063  0.00  0.00    +0.000 A 
ATOM      7  C   UNL     1      91.281  -2.755  16.834  0.00  0.00    +0.000 A 
ATOM      8  C   UNL     1      93.434  -2.487  18.593  0.00  0.00    +0.000 A 
ATOM      9  C   UNL     1      92.518  -2.309  16.365  0.00  0.00    +0.000 A 
ATOM     10  C   UNL     1      93.593  -2.174  17.243  0.00  0.00    +0.000 A 
ENDROOT
BRANCH   3  11
ATOM     11  C   UNL     1      90.813  -4.037  22.301  0.00  0.00    +0.000 A 
ATOM     12  C   UNL     1      90.562  -3.040  23.237  0.00  0.00    +0.000 A 
ATOM     13  C   UNL     1      90.954  -5.363  22.696  0.00  0.00    +0.000 A 
ATOM     14  C   UNL     1      90.450  -3.374  24.587  0.00  0.00    +0.000 A 
ATOM     15  C   UNL     1      90.842  -5.696  24.046  0.00  0.00    +0.000 A 
ATOM     16  C   UNL     1      90.590  -4.702  24.991  0.00  0.00    +0.000 A 
BRANCH  14  17
ATOM     17  O   UNL     1      90.204  -2.394  25.500  0.00  0.00    +0.000 OA
ATOM     18  H   UNL     1      89.448  -1.867  25.187  0.00  0.00    +0.000 HD
ENDBRANCH  14  17
BRANCH  16  19
ATOM     19  O   UNL     1      90.484  -5.040  26.307  0.00  0.00    +0.000 OA
ATOM     20  H   UNL     1      90.960  -5.875  26.459  0.00  0.00    +0.000 HD
ENDBRANCH  16  19
ENDBRANCH   3  11
BRANCH   7  21
ATOM     21  O   UNL     1      90.254  -2.870  15.944  0.00  0.00    +0.000 OA
ATOM     22  H   UNL     1      90.580  -2.775  15.036  0.00  0.00    +0.000 HD
ENDBRANCH   7  21
BRANCH  10  23
ATOM     23  O   UNL     1      94.797  -1.738  16.783  0.00  0.00    +0.000 OA
ATOM     24  H   UNL     1      94.669  -1.320  15.914  0.00  0.00    +0.000 HD
ENDBRANCH  10  23
BRANCH   2  25
ATOM     25  O   UNL     1      88.508  -4.198  20.581  0.00  0.00    +0.000 OA
BRANCH  25  31
ATOM     26  O   UNL     1      87.609  -2.745  22.169  0.00  0.00    +0.000 OA
ATOM     27  C   UNL     1      85.238  -2.354  20.595  0.00  0.00    +0.000 C 
ATOM     28  C   UNL     1      85.334  -1.914  22.056  0.00  0.00    +0.000 C 
ATOM     29  C   UNL     1      86.257  -3.450  20.280  0.00  0.00    +0.000 C 
ATOM     30  C   UNL     1      86.785  -1.609  22.437  0.00  0.00    +0.000 C 
ATOM     31  C   UNL     1      87.650  -3.075  20.783  0.00  0.00    +0.000 C 
BRANCH  27  32
ATOM     32  O   UNL     1      83.918  -2.853  20.369  0.00  0.00    +0.000 OA
ATOM     33  H   UNL     1      83.285  -2.196  20.708  0.00  0.00    +0.000 HD
ENDBRANCH  27  32
BRANCH  28  34
ATOM     34  O   UNL     1      84.540  -0.747  22.251  0.00  0.00    +0.000 OA
ATOM     35  H   UNL     1      85.071  -0.105  22.751  0.00  0.00    +0.000 HD
ENDBRANCH  28  34
BRANCH  29  36
ATOM     36  O   UNL     1      86.328  -3.637  18.866  0.00  0.00    +0.000 OA
ATOM     37  H   UNL     1      86.323  -4.595  18.698  0.00  0.00    +0.000 HD
ENDBRANCH  29  36
BRANCH  30  38
ATOM     38  C   UNL     1      86.922  -1.280  23.921  0.00  0.00    +0.000 C 
BRANCH  38  39
ATOM     39  O   UNL     1      88.164  -0.631  24.126  0.00  0.00    +0.000 OA
ATOM     40  H   UNL     1      88.250   0.062  23.448  0.00  0.00    +0.000 HD
ENDBRANCH  38  39
ENDBRANCH  30  38
ENDBRANCH  25  31
ENDBRANCH   2  25
TORSDOF 12
