REMARK VINA RESULT:      -5.1     14.670     17.345
REMARK  Name = 441667
REMARK  12 active torsions:
REMARK  status: ('A' for Active; 'I' for Inactive)
REMARK    1  A    between atoms: O_2  and  C_16
REMARK    2  A    between atoms: O_2  and  C_18
REMARK    3  A    between atoms: O_3  and  C_12
REMARK    4  A    between atoms: O_4  and  C_13
REMARK    5  A    between atoms: O_5  and  C_14
REMARK    6  A    between atoms: O_6  and  C_17
REMARK    7  A    between atoms: O_8  and  C_24
REMARK    8  A    between atoms: O_9  and  C_29
REMARK    9  A    between atoms: O_10  and  C_30
REMARK   10  A    between atoms: O_11  and  C_32
REMARK   11  A    between atoms: C_15  and  C_17
REMARK   12  A    between atoms: C_19  and  C_23
REMARK                            x       y       z     vdW  Elec       q    Type
REMARK                         _______ _______ _______ _____ _____    ______ ____
ROOT
ATOM      1  O   UNL     1      83.498   1.805  20.690  0.00  0.00    +0.000 OA
ATOM      2  C   UNL     1      84.829   0.366  22.205  0.00  0.00    +0.000 A 
ATOM      3  C   UNL     1      83.911   1.506  21.890  0.00  0.00    +0.000 A 
ATOM      4  C   UNL     1      85.279  -0.347  21.164  0.00  0.00    +0.000 A 
ATOM      5  C   UNL     1      84.870  -0.018  19.803  0.00  0.00    +0.000 A 
ATOM      6  C   UNL     1      83.981   1.043  19.609  0.00  0.00    +0.000 A 
ATOM      7  C   UNL     1      85.332  -0.744  18.702  0.00  0.00    +0.000 A 
ATOM      8  C   UNL     1      83.555   1.378  18.323  0.00  0.00    +0.000 A 
ATOM      9  C   UNL     1      84.906  -0.408  17.416  0.00  0.00    +0.000 A 
ATOM     10  C   UNL     1      84.018   0.651  17.227  0.00  0.00    +0.000 A 
ENDROOT
BRANCH   3  11
ATOM     11  C   UNL     1      83.422   2.324  23.026  0.00  0.00    +0.000 A 
ATOM     12  C   UNL     1      84.294   3.189  23.676  0.00  0.00    +0.000 A 
ATOM     13  C   UNL     1      82.095   2.217  23.428  0.00  0.00    +0.000 A 
ATOM     14  C   UNL     1      83.832   3.958  24.745  0.00  0.00    +0.000 A 
ATOM     15  C   UNL     1      81.635   2.987  24.497  0.00  0.00    +0.000 A 
ATOM     16  C   UNL     1      82.503   3.857  25.155  0.00  0.00    +0.000 A 
BRANCH  14  17
ATOM     17  O   UNL     1      84.690   4.805  25.379  0.00  0.00    +0.000 OA
ATOM     18  H   UNL     1      84.403   4.894  26.305  0.00  0.00    +0.000 HD
ENDBRANCH  14  17
BRANCH  16  19
ATOM     19  O   UNL     1      82.041   4.602  26.197  0.00  0.00    +0.000 OA
ATOM     20  H   UNL     1      81.106   4.819  26.043  0.00  0.00    +0.000 HD
ENDBRANCH  16  19
ENDBRANCH   3  11
BRANCH   7  21
ATOM     21  O   UNL     1      86.197  -1.788  18.845  0.00  0.00    +0.000 OA
ATOM     22  H   UNL     1      87.039  -1.594  18.403  0.00  0.00    +0.000 HD
ENDBRANCH   7  21
BRANCH  10  23
ATOM     23  O   UNL     1      83.604   0.976  15.971  0.00  0.00    +0.000 OA
ATOM     24  H   UNL     1      83.654   1.942  15.863  0.00  0.00    +0.000 HD
ENDBRANCH  10  23
BRANCH   2  25
ATOM     25  O   UNL     1      85.134   0.059  23.511  0.00  0.00    +0.000 OA
BRANCH  25  31
ATOM     26  O   UNL     1      86.443  -1.731  24.235  0.00  0.00    +0.000 OA
ATOM     27  C   UNL     1      88.654   0.008  24.814  0.00  0.00    +0.000 C 
ATOM     28  C   UNL     1      88.599  -1.439  25.304  0.00  0.00    +0.000 C 
ATOM     29  C   UNL     1      87.255   0.541  24.504  0.00  0.00    +0.000 C 
ATOM     30  C   UNL     1      87.748  -2.298  24.367  0.00  0.00    +0.000 C 
ATOM     31  C   UNL     1      86.467  -0.438  23.636  0.00  0.00    +0.000 C 
BRANCH  27  32
ATOM     32  O   UNL     1      89.249   0.801  25.843  0.00  0.00    +0.000 OA
ATOM     33  H   UNL     1      89.236   1.730  25.554  0.00  0.00    +0.000 HD
ENDBRANCH  27  32
BRANCH  28  34
ATOM     34  O   UNL     1      89.921  -1.969  25.360  0.00  0.00    +0.000 OA
ATOM     35  H   UNL     1      89.897  -2.869  24.995  0.00  0.00    +0.000 HD
ENDBRANCH  28  34
BRANCH  29  36
ATOM     36  O   UNL     1      87.365   1.777  23.798  0.00  0.00    +0.000 OA
ATOM     37  H   UNL     1      86.770   1.727  23.030  0.00  0.00    +0.000 HD
ENDBRANCH  29  36
BRANCH  30  38
ATOM     38  C   UNL     1      87.582  -3.719  24.897  0.00  0.00    +0.000 C 
BRANCH  38  39
ATOM     39  O   UNL     1      87.706  -3.690  26.308  0.00  0.00    +0.000 OA
ATOM     40  H   UNL     1      86.810  -3.741  26.683  0.00  0.00    +0.000 HD
ENDBRANCH  38  39
ENDBRANCH  30  38
ENDBRANCH  25  31
ENDBRANCH   2  25
TORSDOF 12
