REMARK VINA RESULT:      -5.2     15.584     17.672
REMARK  Name = 441667
REMARK  12 active torsions:
REMARK  status: ('A' for Active; 'I' for Inactive)
REMARK    1  A    between atoms: O_2  and  C_16
REMARK    2  A    between atoms: O_2  and  C_18
REMARK    3  A    between atoms: O_3  and  C_12
REMARK    4  A    between atoms: O_4  and  C_13
REMARK    5  A    between atoms: O_5  and  C_14
REMARK    6  A    between atoms: O_6  and  C_17
REMARK    7  A    between atoms: O_8  and  C_24
REMARK    8  A    between atoms: O_9  and  C_29
REMARK    9  A    between atoms: O_10  and  C_30
REMARK   10  A    between atoms: O_11  and  C_32
REMARK   11  A    between atoms: C_15  and  C_17
REMARK   12  A    between atoms: C_19  and  C_23
REMARK                            x       y       z     vdW  Elec       q    Type
REMARK                         _______ _______ _______ _____ _____    ______ ____
ROOT
ATOM      1  O   UNL     1      86.399   2.166  21.806  0.00  0.00    +0.000 OA
ATOM      2  C   UNL     1      85.286   0.130  20.942  0.00  0.00    +0.000 A 
ATOM      3  C   UNL     1      85.530   1.605  21.013  0.00  0.00    +0.000 A 
ATOM      4  C   UNL     1      85.984  -0.636  21.790  0.00  0.00    +0.000 A 
ATOM      5  C   UNL     1      86.938  -0.040  22.718  0.00  0.00    +0.000 A 
ATOM      6  C   UNL     1      87.125   1.345  22.689  0.00  0.00    +0.000 A 
ATOM      7  C   UNL     1      87.674  -0.818  23.616  0.00  0.00    +0.000 A 
ATOM      8  C   UNL     1      88.041   1.950  23.551  0.00  0.00    +0.000 A 
ATOM      9  C   UNL     1      88.589  -0.212  24.479  0.00  0.00    +0.000 A 
ATOM     10  C   UNL     1      88.773   1.170  24.446  0.00  0.00    +0.000 A 
ENDROOT
BRANCH   3  11
ATOM     11  C   UNL     1      84.748   2.472  20.101  0.00  0.00    +0.000 A 
ATOM     12  C   UNL     1      85.293   2.856  18.881  0.00  0.00    +0.000 A 
ATOM     13  C   UNL     1      83.476   2.893  20.474  0.00  0.00    +0.000 A 
ATOM     14  C   UNL     1      84.555   3.672  18.022  0.00  0.00    +0.000 A 
ATOM     15  C   UNL     1      82.740   3.709  19.615  0.00  0.00    +0.000 A 
ATOM     16  C   UNL     1      83.279   4.099  18.390  0.00  0.00    +0.000 A 
BRANCH  14  17
ATOM     17  O   UNL     1      85.093   4.045  16.828  0.00  0.00    +0.000 OA
ATOM     18  H   UNL     1      84.371   4.342  16.247  0.00  0.00    +0.000 HD
ENDBRANCH  14  17
BRANCH  16  19
ATOM     19  O   UNL     1      82.550   4.897  17.560  0.00  0.00    +0.000 OA
ATOM     20  H   UNL     1      83.140   5.278  16.888  0.00  0.00    +0.000 HD
ENDBRANCH  16  19
ENDBRANCH   3  11
BRANCH   7  21
ATOM     21  O   UNL     1      87.526  -2.173  23.677  0.00  0.00    +0.000 OA
ATOM     22  H   UNL     1      87.953  -2.595  22.914  0.00  0.00    +0.000 HD
ENDBRANCH   7  21
BRANCH  10  23
ATOM     23  O   UNL     1      89.666   1.758  25.288  0.00  0.00    +0.000 OA
ATOM     24  H   UNL     1      89.187   2.118  26.055  0.00  0.00    +0.000 HD
ENDBRANCH  10  23
BRANCH   2  25
ATOM     25  O   UNL     1      84.421  -0.388  20.005  0.00  0.00    +0.000 OA
BRANCH  25  31
ATOM     26  O   UNL     1      85.089  -0.405  17.770  0.00  0.00    +0.000 OA
ATOM     27  C   UNL     1      85.010  -3.275  17.679  0.00  0.00    +0.000 C 
ATOM     28  C   UNL     1      85.113  -2.418  16.418  0.00  0.00    +0.000 C 
ATOM     29  C   UNL     1      84.421  -2.478  18.843  0.00  0.00    +0.000 C 
ATOM     30  C   UNL     1      85.791  -1.081  16.724  0.00  0.00    +0.000 C 
ATOM     31  C   UNL     1      85.115  -1.126  18.999  0.00  0.00    +0.000 C 
BRANCH  27  32
ATOM     32  O   UNL     1      84.164  -4.389  17.389  0.00  0.00    +0.000 OA
ATOM     33  H   UNL     1      83.239  -4.095  17.467  0.00  0.00    +0.000 HD
ENDBRANCH  27  32
BRANCH  28  34
ATOM     34  O   UNL     1      85.871  -3.116  15.433  0.00  0.00    +0.000 OA
ATOM     35  H   UNL     1      86.692  -3.423  15.852  0.00  0.00    +0.000 HD
ENDBRANCH  28  34
BRANCH  29  36
ATOM     36  O   UNL     1      84.594  -3.212  20.056  0.00  0.00    +0.000 OA
ATOM     37  H   UNL     1      83.911  -2.910  20.679  0.00  0.00    +0.000 HD
ENDBRANCH  29  36
BRANCH  30  38
ATOM     38  C   UNL     1      85.801  -0.161  15.507  0.00  0.00    +0.000 C 
BRANCH  38  39
ATOM     39  O   UNL     1      86.011   1.169  15.949  0.00  0.00    +0.000 OA
ATOM     40  H   UNL     1      85.139   1.560  16.132  0.00  0.00    +0.000 HD
ENDBRANCH  38  39
ENDBRANCH  30  38
ENDBRANCH  25  31
ENDBRANCH   2  25
TORSDOF 12
